
---------- Begin Simulation Statistics ----------
final_tick                               335805710500                       # Number of ticks from beginning of simulation (restored from checkpoints and never reset)
host_inst_rate                                 164730                       # Simulator instruction rate (inst/s)
host_mem_usage                                 679316                       # Number of bytes of host memory used
host_op_rate                                   303463                       # Simulator op (including micro ops) rate (op/s)
host_seconds                                   607.05                       # Real time elapsed on the host
host_tick_rate                              553172387                       # Simulator tick rate (ticks/s)
sim_freq                                 1000000000000                       # Frequency of simulated ticks
sim_insts                                   100000000                       # Number of instructions simulated
sim_ops                                     184218810                       # Number of ops (including micro ops) simulated
sim_seconds                                  0.335806                       # Number of seconds simulated
sim_ticks                                335805710500                       # Number of ticks simulated
system.cpu.committedInsts                   100000000                       # Number of instructions committed
system.cpu.committedOps                     184218810                       # Number of ops (including micro ops) committed
system.cpu.cpi                               6.716114                       # CPI: cycles per instruction
system.cpu.discardedOps                          4365                       # Number of ops (including micro ops) which were discarded before commit
system.cpu.idleCycles                       452557864                       # Total number of cycles that the object has spent stopped
system.cpu.ipc                               0.148896                       # IPC: instructions per cycle
system.cpu.numCycles                        671611421                       # number of cpu cycles simulated
system.cpu.numFetchSuspends                         0                       # Number of times Execute suspended instruction fetching
system.cpu.numWorkItemsCompleted                    0                       # number of work items this cpu completed
system.cpu.numWorkItemsStarted                      0                       # number of work items this cpu started
system.cpu.op_class_0::No_OpClass                   0      0.00%      0.00% # Class of committed instruction
system.cpu.op_class_0::IntAlu                97640467     53.00%     53.00% # Class of committed instruction
system.cpu.op_class_0::IntMult                 114702      0.06%     53.06% # Class of committed instruction
system.cpu.op_class_0::IntDiv                       0      0.00%     53.06% # Class of committed instruction
system.cpu.op_class_0::FloatAdd                     0      0.00%     53.06% # Class of committed instruction
system.cpu.op_class_0::FloatCmp                     0      0.00%     53.06% # Class of committed instruction
system.cpu.op_class_0::FloatCvt                     0      0.00%     53.06% # Class of committed instruction
system.cpu.op_class_0::FloatMult                    0      0.00%     53.06% # Class of committed instruction
system.cpu.op_class_0::FloatMultAcc                 0      0.00%     53.06% # Class of committed instruction
system.cpu.op_class_0::FloatDiv                     0      0.00%     53.06% # Class of committed instruction
system.cpu.op_class_0::FloatMisc                    0      0.00%     53.06% # Class of committed instruction
system.cpu.op_class_0::FloatSqrt                    0      0.00%     53.06% # Class of committed instruction
system.cpu.op_class_0::SimdAdd                      8      0.00%     53.06% # Class of committed instruction
system.cpu.op_class_0::SimdAddAcc                   0      0.00%     53.06% # Class of committed instruction
system.cpu.op_class_0::SimdAlu                     10      0.00%     53.06% # Class of committed instruction
system.cpu.op_class_0::SimdCmp                      8      0.00%     53.06% # Class of committed instruction
system.cpu.op_class_0::SimdCvt                      0      0.00%     53.06% # Class of committed instruction
system.cpu.op_class_0::SimdMisc                     1      0.00%     53.06% # Class of committed instruction
system.cpu.op_class_0::SimdMult                     0      0.00%     53.06% # Class of committed instruction
system.cpu.op_class_0::SimdMultAcc                  0      0.00%     53.06% # Class of committed instruction
system.cpu.op_class_0::SimdShift                    0      0.00%     53.06% # Class of committed instruction
system.cpu.op_class_0::SimdShiftAcc                 0      0.00%     53.06% # Class of committed instruction
system.cpu.op_class_0::SimdDiv                      0      0.00%     53.06% # Class of committed instruction
system.cpu.op_class_0::SimdSqrt                     0      0.00%     53.06% # Class of committed instruction
system.cpu.op_class_0::SimdFloatAdd                 0      0.00%     53.06% # Class of committed instruction
system.cpu.op_class_0::SimdFloatAlu                 0      0.00%     53.06% # Class of committed instruction
system.cpu.op_class_0::SimdFloatCmp                 0      0.00%     53.06% # Class of committed instruction
system.cpu.op_class_0::SimdFloatCvt                 0      0.00%     53.06% # Class of committed instruction
system.cpu.op_class_0::SimdFloatDiv                 0      0.00%     53.06% # Class of committed instruction
system.cpu.op_class_0::SimdFloatMisc               24      0.00%     53.06% # Class of committed instruction
system.cpu.op_class_0::SimdFloatMult                0      0.00%     53.06% # Class of committed instruction
system.cpu.op_class_0::SimdFloatMultAcc             0      0.00%     53.06% # Class of committed instruction
system.cpu.op_class_0::SimdFloatSqrt                0      0.00%     53.06% # Class of committed instruction
system.cpu.op_class_0::SimdReduceAdd                0      0.00%     53.06% # Class of committed instruction
system.cpu.op_class_0::SimdReduceAlu                0      0.00%     53.06% # Class of committed instruction
system.cpu.op_class_0::SimdReduceCmp                0      0.00%     53.06% # Class of committed instruction
system.cpu.op_class_0::SimdFloatReduceAdd            0      0.00%     53.06% # Class of committed instruction
system.cpu.op_class_0::SimdFloatReduceCmp            0      0.00%     53.06% # Class of committed instruction
system.cpu.op_class_0::SimdAes                      0      0.00%     53.06% # Class of committed instruction
system.cpu.op_class_0::SimdAesMix                   0      0.00%     53.06% # Class of committed instruction
system.cpu.op_class_0::SimdSha1Hash                 0      0.00%     53.06% # Class of committed instruction
system.cpu.op_class_0::SimdSha1Hash2                0      0.00%     53.06% # Class of committed instruction
system.cpu.op_class_0::SimdSha256Hash               0      0.00%     53.06% # Class of committed instruction
system.cpu.op_class_0::SimdSha256Hash2              0      0.00%     53.06% # Class of committed instruction
system.cpu.op_class_0::SimdShaSigma2                0      0.00%     53.06% # Class of committed instruction
system.cpu.op_class_0::SimdShaSigma3                0      0.00%     53.06% # Class of committed instruction
system.cpu.op_class_0::SimdPredAlu                  0      0.00%     53.06% # Class of committed instruction
system.cpu.op_class_0::MemRead                2082677      1.13%     54.20% # Class of committed instruction
system.cpu.op_class_0::MemWrite              84380913     45.80%    100.00% # Class of committed instruction
system.cpu.op_class_0::FloatMemRead                 0      0.00%    100.00% # Class of committed instruction
system.cpu.op_class_0::FloatMemWrite                0      0.00%    100.00% # Class of committed instruction
system.cpu.op_class_0::IprAccess                    0      0.00%    100.00% # Class of committed instruction
system.cpu.op_class_0::InstPrefetch                 0      0.00%    100.00% # Class of committed instruction
system.cpu.op_class_0::total                184218810                       # Class of committed instruction
system.cpu.tickCycles                       219053557                       # Number of cycles that the object actually ticked
system.cpu.workload.numSyscalls                    19                       # Number of system calls
system.membus.snoop_filter.hit_multi_requests            0                       # Number of requests hitting in the snoop filter with multiple (>1) holders of the requested data.
system.membus.snoop_filter.hit_multi_snoops            0                       # Number of snoops hitting in the snoop filter with multiple (>1) holders of the requested data.
system.membus.snoop_filter.hit_single_requests      2615564                       # Number of requests hitting in the snoop filter with a single holder of the requested data.
system.membus.snoop_filter.hit_single_snoops            0                       # Number of snoops hitting in the snoop filter with a single holder of the requested data.
system.membus.snoop_filter.tot_requests       5247740                       # Total number of requests made to the snoop filter.
system.membus.snoop_filter.tot_snoops               0                       # Total number of snoops made to the snoop filter.
system.tol2bus.snoop_filter.hit_multi_requests           60                       # Number of requests hitting in the snoop filter with multiple (>1) holders of the requested data.
system.tol2bus.snoop_filter.hit_multi_snoops            0                       # Number of snoops hitting in the snoop filter with multiple (>1) holders of the requested data.
system.tol2bus.snoop_filter.hit_single_requests      2631573                       # Number of requests hitting in the snoop filter with a single holder of the requested data.
system.tol2bus.snoop_filter.hit_single_snoops          328                       # Number of snoops hitting in the snoop filter with a single holder of the requested data.
system.tol2bus.snoop_filter.tot_requests      5263899                       # Total number of requests made to the snoop filter.
system.tol2bus.snoop_filter.tot_snoops            328                       # Total number of snoops made to the snoop filter.
system.membus.trans_dist::ReadResp                583                       # Transaction distribution
system.membus.trans_dist::WritebackDirty      2615243                       # Transaction distribution
system.membus.trans_dist::CleanEvict              309                       # Transaction distribution
system.membus.trans_dist::ReadExReq           2631605                       # Transaction distribution
system.membus.trans_dist::ReadExResp          2631605                       # Transaction distribution
system.membus.trans_dist::ReadSharedReq           583                       # Transaction distribution
system.membus.pkt_count_system.l2.mem_side_port::system.mem_ctrls.port      7879928                       # Packet count per connected requestor and responder (bytes)
system.membus.pkt_count::total                7879928                       # Packet count per connected requestor and responder (bytes)
system.membus.pkt_size_system.l2.mem_side_port::system.mem_ctrls.port    671671168                       # Cumulative packet size per connected requestor and responder (bytes)
system.membus.pkt_size::total               671671168                       # Cumulative packet size per connected requestor and responder (bytes)
system.membus.snoops                                0                       # Total snoops (count)
system.membus.snoopTraffic                          0                       # Total snoop traffic (bytes)
system.membus.snoop_fanout::samples           2632188                       # Request fanout histogram
system.membus.snoop_fanout::mean                    0                       # Request fanout histogram
system.membus.snoop_fanout::stdev                   0                       # Request fanout histogram
system.membus.snoop_fanout::underflows              0      0.00%      0.00% # Request fanout histogram
system.membus.snoop_fanout::0                 2632188    100.00%    100.00% # Request fanout histogram
system.membus.snoop_fanout::1                       0      0.00%    100.00% # Request fanout histogram
system.membus.snoop_fanout::overflows               0      0.00%    100.00% # Request fanout histogram
system.membus.snoop_fanout::min_value               0                       # Request fanout histogram
system.membus.snoop_fanout::max_value               0                       # Request fanout histogram
system.membus.snoop_fanout::total             2632188                       # Request fanout histogram
system.membus.reqLayer0.occupancy         26192167000                       # Layer occupancy (ticks)
system.membus.reqLayer0.utilization               7.8                       # Layer utilization (%)
system.membus.respLayer1.occupancy        24986919022                       # Layer occupancy (ticks)
system.membus.respLayer1.utilization              7.4                       # Layer utilization (%)
system.membus.power_state.pwrStateResidencyTicks::UNDEFINED 335805710500                       # Cumulative time (in ticks) in various power states
system.tol2bus.trans_dist::ReadResp               708                       # Transaction distribution
system.tol2bus.trans_dist::WritebackDirty      5246381                       # Transaction distribution
system.tol2bus.trans_dist::WritebackClean          219                       # Transaction distribution
system.tol2bus.trans_dist::CleanEvict             853                       # Transaction distribution
system.tol2bus.trans_dist::ReadExReq          2631618                       # Transaction distribution
system.tol2bus.trans_dist::ReadExResp         2631617                       # Transaction distribution
system.tol2bus.trans_dist::ReadCleanReq           459                       # Transaction distribution
system.tol2bus.trans_dist::ReadSharedReq          249                       # Transaction distribution
system.tol2bus.pkt_count_system.cpu.icache.mem_side_port::system.l2.cpu_side_port         1137                       # Packet count per connected requestor and responder (bytes)
system.tol2bus.pkt_count_system.cpu.dcache.mem_side_port::system.l2.cpu_side_port      7895087                       # Packet count per connected requestor and responder (bytes)
system.tol2bus.pkt_count::total               7896224                       # Packet count per connected requestor and responder (bytes)
system.tol2bus.pkt_size_system.cpu.icache.mem_side_port::system.l2.cpu_side_port        86784                       # Cumulative packet size per connected requestor and responder (bytes)
system.tol2bus.pkt_size_system.cpu.dcache.mem_side_port::system.l2.cpu_side_port    673664512                       # Cumulative packet size per connected requestor and responder (bytes)
system.tol2bus.pkt_size::total              673751296                       # Cumulative packet size per connected requestor and responder (bytes)
system.tol2bus.snoops                         2615880                       # Total snoops (count)
system.tol2bus.snoopTraffic                 334751104                       # Total snoop traffic (bytes)
system.tol2bus.snoop_fanout::samples          5248206                       # Request fanout histogram
system.tol2bus.snoop_fanout::mean            0.000074                       # Request fanout histogram
system.tol2bus.snoop_fanout::stdev           0.008598                       # Request fanout histogram
system.tol2bus.snoop_fanout::underflows             0      0.00%      0.00% # Request fanout histogram
system.tol2bus.snoop_fanout::0                5247818     99.99%     99.99% # Request fanout histogram
system.tol2bus.snoop_fanout::1                    388      0.01%    100.00% # Request fanout histogram
system.tol2bus.snoop_fanout::2                      0      0.00%    100.00% # Request fanout histogram
system.tol2bus.snoop_fanout::overflows              0      0.00%    100.00% # Request fanout histogram
system.tol2bus.snoop_fanout::min_value              0                       # Request fanout histogram
system.tol2bus.snoop_fanout::max_value              1                       # Request fanout histogram
system.tol2bus.snoop_fanout::total            5248206                       # Request fanout histogram
system.tol2bus.reqLayer0.occupancy         7894663500                       # Layer occupancy (ticks)
system.tol2bus.reqLayer0.utilization              2.4                       # Layer utilization (%)
system.tol2bus.respLayer1.occupancy        6579668493                       # Layer occupancy (ticks)
system.tol2bus.respLayer1.utilization             2.0                       # Layer utilization (%)
system.tol2bus.respLayer0.occupancy           1148498                       # Layer occupancy (ticks)
system.tol2bus.respLayer0.utilization             0.0                       # Layer utilization (%)
system.tol2bus.power_state.pwrStateResidencyTicks::UNDEFINED 335805710500                       # Cumulative time (in ticks) in various power states
system.voltage_domain.voltage                       1                       # Voltage in Volts
system.clk_domain.clock                          1000                       # Clock period in ticks
system.l2.demand_hits::.cpu.inst                   72                       # number of demand (read+write) hits
system.l2.demand_hits::.cpu.data                   56                       # number of demand (read+write) hits
system.l2.demand_hits::total                      128                       # number of demand (read+write) hits
system.l2.overall_hits::.cpu.inst                  72                       # number of overall hits
system.l2.overall_hits::.cpu.data                  56                       # number of overall hits
system.l2.overall_hits::total                     128                       # number of overall hits
system.l2.demand_misses::.cpu.inst                387                       # number of demand (read+write) misses
system.l2.demand_misses::.cpu.data            2631811                       # number of demand (read+write) misses
system.l2.demand_misses::total                2632198                       # number of demand (read+write) misses
system.l2.overall_misses::.cpu.inst               387                       # number of overall misses
system.l2.overall_misses::.cpu.data           2631811                       # number of overall misses
system.l2.overall_misses::total               2632198                       # number of overall misses
system.l2.demand_miss_latency::.cpu.inst     32583000                       # number of demand (read+write) miss cycles
system.l2.demand_miss_latency::.cpu.data 236747608500                       # number of demand (read+write) miss cycles
system.l2.demand_miss_latency::total     236780191500                       # number of demand (read+write) miss cycles
system.l2.overall_miss_latency::.cpu.inst     32583000                       # number of overall miss cycles
system.l2.overall_miss_latency::.cpu.data 236747608500                       # number of overall miss cycles
system.l2.overall_miss_latency::total    236780191500                       # number of overall miss cycles
system.l2.demand_accesses::.cpu.inst              459                       # number of demand (read+write) accesses
system.l2.demand_accesses::.cpu.data          2631867                       # number of demand (read+write) accesses
system.l2.demand_accesses::total              2632326                       # number of demand (read+write) accesses
system.l2.overall_accesses::.cpu.inst             459                       # number of overall (read+write) accesses
system.l2.overall_accesses::.cpu.data         2631867                       # number of overall (read+write) accesses
system.l2.overall_accesses::total             2632326                       # number of overall (read+write) accesses
system.l2.demand_miss_rate::.cpu.inst        0.843137                       # miss rate for demand accesses
system.l2.demand_miss_rate::.cpu.data        0.999979                       # miss rate for demand accesses
system.l2.demand_miss_rate::total            0.999951                       # miss rate for demand accesses
system.l2.overall_miss_rate::.cpu.inst       0.843137                       # miss rate for overall accesses
system.l2.overall_miss_rate::.cpu.data       0.999979                       # miss rate for overall accesses
system.l2.overall_miss_rate::total           0.999951                       # miss rate for overall accesses
system.l2.demand_avg_miss_latency::.cpu.inst 84193.798450                       # average overall miss latency
system.l2.demand_avg_miss_latency::.cpu.data 89956.158896                       # average overall miss latency
system.l2.demand_avg_miss_latency::total 89955.311682                       # average overall miss latency
system.l2.overall_avg_miss_latency::.cpu.inst 84193.798450                       # average overall miss latency
system.l2.overall_avg_miss_latency::.cpu.data 89956.158896                       # average overall miss latency
system.l2.overall_avg_miss_latency::total 89955.311682                       # average overall miss latency
system.l2.blocked_cycles::no_mshrs                  0                       # number of cycles access was blocked
system.l2.blocked_cycles::no_targets                0                       # number of cycles access was blocked
system.l2.blocked::no_mshrs                         0                       # number of cycles access was blocked
system.l2.blocked::no_targets                       0                       # number of cycles access was blocked
system.l2.avg_blocked_cycles::no_mshrs            nan                       # average number of cycles each access was blocked
system.l2.avg_blocked_cycles::no_targets          nan                       # average number of cycles each access was blocked
system.l2.writebacks::.writebacks             2615243                       # number of writebacks
system.l2.writebacks::total                   2615243                       # number of writebacks
system.l2.demand_mshr_hits::.cpu.inst               2                       # number of demand (read+write) MSHR hits
system.l2.demand_mshr_hits::.cpu.data               7                       # number of demand (read+write) MSHR hits
system.l2.demand_mshr_hits::total                   9                       # number of demand (read+write) MSHR hits
system.l2.overall_mshr_hits::.cpu.inst              2                       # number of overall MSHR hits
system.l2.overall_mshr_hits::.cpu.data              7                       # number of overall MSHR hits
system.l2.overall_mshr_hits::total                  9                       # number of overall MSHR hits
system.l2.demand_mshr_misses::.cpu.inst           385                       # number of demand (read+write) MSHR misses
system.l2.demand_mshr_misses::.cpu.data       2631804                       # number of demand (read+write) MSHR misses
system.l2.demand_mshr_misses::total           2632189                       # number of demand (read+write) MSHR misses
system.l2.overall_mshr_misses::.cpu.inst          385                       # number of overall MSHR misses
system.l2.overall_mshr_misses::.cpu.data      2631804                       # number of overall MSHR misses
system.l2.overall_mshr_misses::total          2632189                       # number of overall MSHR misses
system.l2.demand_mshr_miss_latency::.cpu.inst     28671500                       # number of demand (read+write) MSHR miss cycles
system.l2.demand_mshr_miss_latency::.cpu.data 210429093000                       # number of demand (read+write) MSHR miss cycles
system.l2.demand_mshr_miss_latency::total 210457764500                       # number of demand (read+write) MSHR miss cycles
system.l2.overall_mshr_miss_latency::.cpu.inst     28671500                       # number of overall MSHR miss cycles
system.l2.overall_mshr_miss_latency::.cpu.data 210429093000                       # number of overall MSHR miss cycles
system.l2.overall_mshr_miss_latency::total 210457764500                       # number of overall MSHR miss cycles
system.l2.demand_mshr_miss_rate::.cpu.inst     0.838780                       # mshr miss rate for demand accesses
system.l2.demand_mshr_miss_rate::.cpu.data     0.999976                       # mshr miss rate for demand accesses
system.l2.demand_mshr_miss_rate::total       0.999948                       # mshr miss rate for demand accesses
system.l2.overall_mshr_miss_rate::.cpu.inst     0.838780                       # mshr miss rate for overall accesses
system.l2.overall_mshr_miss_rate::.cpu.data     0.999976                       # mshr miss rate for overall accesses
system.l2.overall_mshr_miss_rate::total      0.999948                       # mshr miss rate for overall accesses
system.l2.demand_avg_mshr_miss_latency::.cpu.inst 74471.428571                       # average overall mshr miss latency
system.l2.demand_avg_mshr_miss_latency::.cpu.data 79956.217484                       # average overall mshr miss latency
system.l2.demand_avg_mshr_miss_latency::total 79955.415246                       # average overall mshr miss latency
system.l2.overall_avg_mshr_miss_latency::.cpu.inst 74471.428571                       # average overall mshr miss latency
system.l2.overall_avg_mshr_miss_latency::.cpu.data 79956.217484                       # average overall mshr miss latency
system.l2.overall_avg_mshr_miss_latency::total 79955.415246                       # average overall mshr miss latency
system.l2.replacements                        2615880                       # number of replacements
system.l2.WritebackDirty_hits::.writebacks      2631138                       # number of WritebackDirty hits
system.l2.WritebackDirty_hits::total          2631138                       # number of WritebackDirty hits
system.l2.WritebackDirty_accesses::.writebacks      2631138                       # number of WritebackDirty accesses(hits+misses)
system.l2.WritebackDirty_accesses::total      2631138                       # number of WritebackDirty accesses(hits+misses)
system.l2.WritebackClean_hits::.writebacks          206                       # number of WritebackClean hits
system.l2.WritebackClean_hits::total              206                       # number of WritebackClean hits
system.l2.WritebackClean_accesses::.writebacks          206                       # number of WritebackClean accesses(hits+misses)
system.l2.WritebackClean_accesses::total          206                       # number of WritebackClean accesses(hits+misses)
system.l2.ReadExReq_hits::.cpu.data                12                       # number of ReadExReq hits
system.l2.ReadExReq_hits::total                    12                       # number of ReadExReq hits
system.l2.ReadExReq_misses::.cpu.data         2631606                       # number of ReadExReq misses
system.l2.ReadExReq_misses::total             2631606                       # number of ReadExReq misses
system.l2.ReadExReq_miss_latency::.cpu.data 236728866500                       # number of ReadExReq miss cycles
system.l2.ReadExReq_miss_latency::total  236728866500                       # number of ReadExReq miss cycles
system.l2.ReadExReq_accesses::.cpu.data       2631618                       # number of ReadExReq accesses(hits+misses)
system.l2.ReadExReq_accesses::total           2631618                       # number of ReadExReq accesses(hits+misses)
system.l2.ReadExReq_miss_rate::.cpu.data     0.999995                       # miss rate for ReadExReq accesses
system.l2.ReadExReq_miss_rate::total         0.999995                       # miss rate for ReadExReq accesses
system.l2.ReadExReq_avg_miss_latency::.cpu.data 89956.044522                       # average ReadExReq miss latency
system.l2.ReadExReq_avg_miss_latency::total 89956.044522                       # average ReadExReq miss latency
system.l2.ReadExReq_mshr_misses::.cpu.data      2631606                       # number of ReadExReq MSHR misses
system.l2.ReadExReq_mshr_misses::total        2631606                       # number of ReadExReq MSHR misses
system.l2.ReadExReq_mshr_miss_latency::.cpu.data 210412816500                       # number of ReadExReq MSHR miss cycles
system.l2.ReadExReq_mshr_miss_latency::total 210412816500                       # number of ReadExReq MSHR miss cycles
system.l2.ReadExReq_mshr_miss_rate::.cpu.data     0.999995                       # mshr miss rate for ReadExReq accesses
system.l2.ReadExReq_mshr_miss_rate::total     0.999995                       # mshr miss rate for ReadExReq accesses
system.l2.ReadExReq_avg_mshr_miss_latency::.cpu.data 79956.048322                       # average ReadExReq mshr miss latency
system.l2.ReadExReq_avg_mshr_miss_latency::total 79956.048322                       # average ReadExReq mshr miss latency
system.l2.ReadCleanReq_hits::.cpu.inst             72                       # number of ReadCleanReq hits
system.l2.ReadCleanReq_hits::total                 72                       # number of ReadCleanReq hits
system.l2.ReadCleanReq_misses::.cpu.inst          387                       # number of ReadCleanReq misses
system.l2.ReadCleanReq_misses::total              387                       # number of ReadCleanReq misses
system.l2.ReadCleanReq_miss_latency::.cpu.inst     32583000                       # number of ReadCleanReq miss cycles
system.l2.ReadCleanReq_miss_latency::total     32583000                       # number of ReadCleanReq miss cycles
system.l2.ReadCleanReq_accesses::.cpu.inst          459                       # number of ReadCleanReq accesses(hits+misses)
system.l2.ReadCleanReq_accesses::total            459                       # number of ReadCleanReq accesses(hits+misses)
system.l2.ReadCleanReq_miss_rate::.cpu.inst     0.843137                       # miss rate for ReadCleanReq accesses
system.l2.ReadCleanReq_miss_rate::total      0.843137                       # miss rate for ReadCleanReq accesses
system.l2.ReadCleanReq_avg_miss_latency::.cpu.inst 84193.798450                       # average ReadCleanReq miss latency
system.l2.ReadCleanReq_avg_miss_latency::total 84193.798450                       # average ReadCleanReq miss latency
system.l2.ReadCleanReq_mshr_hits::.cpu.inst            2                       # number of ReadCleanReq MSHR hits
system.l2.ReadCleanReq_mshr_hits::total             2                       # number of ReadCleanReq MSHR hits
system.l2.ReadCleanReq_mshr_misses::.cpu.inst          385                       # number of ReadCleanReq MSHR misses
system.l2.ReadCleanReq_mshr_misses::total          385                       # number of ReadCleanReq MSHR misses
system.l2.ReadCleanReq_mshr_miss_latency::.cpu.inst     28671500                       # number of ReadCleanReq MSHR miss cycles
system.l2.ReadCleanReq_mshr_miss_latency::total     28671500                       # number of ReadCleanReq MSHR miss cycles
system.l2.ReadCleanReq_mshr_miss_rate::.cpu.inst     0.838780                       # mshr miss rate for ReadCleanReq accesses
system.l2.ReadCleanReq_mshr_miss_rate::total     0.838780                       # mshr miss rate for ReadCleanReq accesses
system.l2.ReadCleanReq_avg_mshr_miss_latency::.cpu.inst 74471.428571                       # average ReadCleanReq mshr miss latency
system.l2.ReadCleanReq_avg_mshr_miss_latency::total 74471.428571                       # average ReadCleanReq mshr miss latency
system.l2.ReadSharedReq_hits::.cpu.data            44                       # number of ReadSharedReq hits
system.l2.ReadSharedReq_hits::total                44                       # number of ReadSharedReq hits
system.l2.ReadSharedReq_misses::.cpu.data          205                       # number of ReadSharedReq misses
system.l2.ReadSharedReq_misses::total             205                       # number of ReadSharedReq misses
system.l2.ReadSharedReq_miss_latency::.cpu.data     18742000                       # number of ReadSharedReq miss cycles
system.l2.ReadSharedReq_miss_latency::total     18742000                       # number of ReadSharedReq miss cycles
system.l2.ReadSharedReq_accesses::.cpu.data          249                       # number of ReadSharedReq accesses(hits+misses)
system.l2.ReadSharedReq_accesses::total           249                       # number of ReadSharedReq accesses(hits+misses)
system.l2.ReadSharedReq_miss_rate::.cpu.data     0.823293                       # miss rate for ReadSharedReq accesses
system.l2.ReadSharedReq_miss_rate::total     0.823293                       # miss rate for ReadSharedReq accesses
system.l2.ReadSharedReq_avg_miss_latency::.cpu.data 91424.390244                       # average ReadSharedReq miss latency
system.l2.ReadSharedReq_avg_miss_latency::total 91424.390244                       # average ReadSharedReq miss latency
system.l2.ReadSharedReq_mshr_hits::.cpu.data            7                       # number of ReadSharedReq MSHR hits
system.l2.ReadSharedReq_mshr_hits::total            7                       # number of ReadSharedReq MSHR hits
system.l2.ReadSharedReq_mshr_misses::.cpu.data          198                       # number of ReadSharedReq MSHR misses
system.l2.ReadSharedReq_mshr_misses::total          198                       # number of ReadSharedReq MSHR misses
system.l2.ReadSharedReq_mshr_miss_latency::.cpu.data     16276500                       # number of ReadSharedReq MSHR miss cycles
system.l2.ReadSharedReq_mshr_miss_latency::total     16276500                       # number of ReadSharedReq MSHR miss cycles
system.l2.ReadSharedReq_mshr_miss_rate::.cpu.data     0.795181                       # mshr miss rate for ReadSharedReq accesses
system.l2.ReadSharedReq_mshr_miss_rate::total     0.795181                       # mshr miss rate for ReadSharedReq accesses
system.l2.ReadSharedReq_avg_mshr_miss_latency::.cpu.data 82204.545455                       # average ReadSharedReq mshr miss latency
system.l2.ReadSharedReq_avg_mshr_miss_latency::total 82204.545455                       # average ReadSharedReq mshr miss latency
system.l2.power_state.pwrStateResidencyTicks::UNDEFINED 335805710500                       # Cumulative time (in ticks) in various power states
system.l2.tags.tagsinuse                 16212.950850                       # Cycle average of tags in use
system.l2.tags.total_refs                     5263829                       # Total number of references to valid blocks.
system.l2.tags.sampled_refs                   2632264                       # Sample count of references to valid blocks.
system.l2.tags.avg_refs                      1.999734                       # Average number of references to valid blocks.
system.l2.tags.warmup_cycle                     81000                       # Cycle when the warmup percentage was hit.
system.l2.tags.occ_blocks::.writebacks       0.439536                       # Average occupied blocks per requestor
system.l2.tags.occ_blocks::.cpu.inst         4.176077                       # Average occupied blocks per requestor
system.l2.tags.occ_blocks::.cpu.data     16208.335237                       # Average occupied blocks per requestor
system.l2.tags.occ_percent::.writebacks      0.000027                       # Average percentage of cache occupancy
system.l2.tags.occ_percent::.cpu.inst        0.000255                       # Average percentage of cache occupancy
system.l2.tags.occ_percent::.cpu.data        0.989278                       # Average percentage of cache occupancy
system.l2.tags.occ_percent::total            0.989560                       # Average percentage of cache occupancy
system.l2.tags.occ_task_id_blocks::1024         16384                       # Occupied blocks per task id
system.l2.tags.age_task_id_blocks_1024::0           79                       # Occupied blocks per task id
system.l2.tags.age_task_id_blocks_1024::1          714                       # Occupied blocks per task id
system.l2.tags.age_task_id_blocks_1024::2         7116                       # Occupied blocks per task id
system.l2.tags.age_task_id_blocks_1024::3         8475                       # Occupied blocks per task id
system.l2.tags.occ_task_id_percent::1024            1                       # Percentage of cache occupancy per task id
system.l2.tags.tag_accesses                  44742976                       # Number of tag accesses
system.l2.tags.data_accesses                 44742976                       # Number of data accesses
system.l2.tags.power_state.pwrStateResidencyTicks::UNDEFINED 335805710500                       # Cumulative time (in ticks) in various power states
system.cpu_voltage_domain.voltage                   1                       # Voltage in Volts
system.mem_ctrls.avgPriority_.writebacks::samples   5230486.00                       # Average QoS priority value for accepted requests
system.mem_ctrls.avgPriority_.cpu.inst::samples       770.00                       # Average QoS priority value for accepted requests
system.mem_ctrls.avgPriority_.cpu.data::samples   5263606.00                       # Average QoS priority value for accepted requests
system.mem_ctrls.priorityMinLatency      0.000000017492                       # per QoS priority minimum request to response latency (s)
system.mem_ctrls.priorityMaxLatency      0.000326796316                       # per QoS priority maximum request to response latency (s)
system.mem_ctrls.numReadWriteTurnArounds       306213                       # Number of turnarounds from READ to WRITE
system.mem_ctrls.numWriteReadTurnArounds       306213                       # Number of turnarounds from WRITE to READ
system.mem_ctrls.numStayReadState            10333285                       # Number of times bus staying in READ state
system.mem_ctrls.numStayWriteState            4930241                       # Number of times bus staying in WRITE state
system.mem_ctrls.readReqs                     2632188                       # Number of read requests accepted
system.mem_ctrls.writeReqs                    2615243                       # Number of write requests accepted
system.mem_ctrls.readBursts                   5264376                       # Number of controller read bursts, including those serviced by the write queue
system.mem_ctrls.writeBursts                  5230486                       # Number of controller write bursts, including those merged in the write queue
system.mem_ctrls.servicedByWrQ                      0                       # Number of controller read bursts serviced by the write queue
system.mem_ctrls.mergedWrBursts                     0                       # Number of controller write bursts merged with an existing one
system.mem_ctrls.neitherReadNorWriteReqs            0                       # Number of requests that are neither read nor write
system.mem_ctrls.avgRdQLen                       2.02                       # Average read queue length when enqueuing
system.mem_ctrls.avgWrQLen                      57.57                       # Average write queue length when enqueuing
system.mem_ctrls.numRdRetry                         0                       # Number of times read queue was full causing retry
system.mem_ctrls.numWrRetry                         0                       # Number of times write queue was full causing retry
system.mem_ctrls.readPktSize::0                     0                       # Read request sizes (log2)
system.mem_ctrls.readPktSize::1                     0                       # Read request sizes (log2)
system.mem_ctrls.readPktSize::2                     0                       # Read request sizes (log2)
system.mem_ctrls.readPktSize::3                     0                       # Read request sizes (log2)
system.mem_ctrls.readPktSize::4                     0                       # Read request sizes (log2)
system.mem_ctrls.readPktSize::5                     0                       # Read request sizes (log2)
system.mem_ctrls.readPktSize::6               5264376                       # Read request sizes (log2)
system.mem_ctrls.readPktSize::7                     0                       # Read request sizes (log2)
system.mem_ctrls.writePktSize::0                    0                       # Write request sizes (log2)
system.mem_ctrls.writePktSize::1                    0                       # Write request sizes (log2)
system.mem_ctrls.writePktSize::2                    0                       # Write request sizes (log2)
system.mem_ctrls.writePktSize::3                    0                       # Write request sizes (log2)
system.mem_ctrls.writePktSize::4                    0                       # Write request sizes (log2)
system.mem_ctrls.writePktSize::5                    0                       # Write request sizes (log2)
system.mem_ctrls.writePktSize::6              5230486                       # Write request sizes (log2)
system.mem_ctrls.writePktSize::7                    0                       # Write request sizes (log2)
system.mem_ctrls.rdQLenPdf::0                 2631661                       # What read queue length does an incoming req see
system.mem_ctrls.rdQLenPdf::1                 2631666                       # What read queue length does an incoming req see
system.mem_ctrls.rdQLenPdf::2                     515                       # What read queue length does an incoming req see
system.mem_ctrls.rdQLenPdf::3                     511                       # What read queue length does an incoming req see
system.mem_ctrls.rdQLenPdf::4                      12                       # What read queue length does an incoming req see
system.mem_ctrls.rdQLenPdf::5                      11                       # What read queue length does an incoming req see
system.mem_ctrls.rdQLenPdf::6                       0                       # What read queue length does an incoming req see
system.mem_ctrls.rdQLenPdf::7                       0                       # What read queue length does an incoming req see
system.mem_ctrls.rdQLenPdf::8                       0                       # What read queue length does an incoming req see
system.mem_ctrls.rdQLenPdf::9                       0                       # What read queue length does an incoming req see
system.mem_ctrls.rdQLenPdf::10                      0                       # What read queue length does an incoming req see
system.mem_ctrls.rdQLenPdf::11                      0                       # What read queue length does an incoming req see
system.mem_ctrls.rdQLenPdf::12                      0                       # What read queue length does an incoming req see
system.mem_ctrls.rdQLenPdf::13                      0                       # What read queue length does an incoming req see
system.mem_ctrls.rdQLenPdf::14                      0                       # What read queue length does an incoming req see
system.mem_ctrls.rdQLenPdf::15                      0                       # What read queue length does an incoming req see
system.mem_ctrls.rdQLenPdf::16                      0                       # What read queue length does an incoming req see
system.mem_ctrls.rdQLenPdf::17                      0                       # What read queue length does an incoming req see
system.mem_ctrls.rdQLenPdf::18                      0                       # What read queue length does an incoming req see
system.mem_ctrls.rdQLenPdf::19                      0                       # What read queue length does an incoming req see
system.mem_ctrls.rdQLenPdf::20                      0                       # What read queue length does an incoming req see
system.mem_ctrls.rdQLenPdf::21                      0                       # What read queue length does an incoming req see
system.mem_ctrls.rdQLenPdf::22                      0                       # What read queue length does an incoming req see
system.mem_ctrls.rdQLenPdf::23                      0                       # What read queue length does an incoming req see
system.mem_ctrls.rdQLenPdf::24                      0                       # What read queue length does an incoming req see
system.mem_ctrls.rdQLenPdf::25                      0                       # What read queue length does an incoming req see
system.mem_ctrls.rdQLenPdf::26                      0                       # What read queue length does an incoming req see
system.mem_ctrls.rdQLenPdf::27                      0                       # What read queue length does an incoming req see
system.mem_ctrls.rdQLenPdf::28                      0                       # What read queue length does an incoming req see
system.mem_ctrls.rdQLenPdf::29                      0                       # What read queue length does an incoming req see
system.mem_ctrls.rdQLenPdf::30                      0                       # What read queue length does an incoming req see
system.mem_ctrls.rdQLenPdf::31                      0                       # What read queue length does an incoming req see
system.mem_ctrls.rdQLenPdf::32                      0                       # What read queue length does an incoming req see
system.mem_ctrls.rdQLenPdf::33                      0                       # What read queue length does an incoming req see
system.mem_ctrls.rdQLenPdf::34                      0                       # What read queue length does an incoming req see
system.mem_ctrls.rdQLenPdf::35                      0                       # What read queue length does an incoming req see
system.mem_ctrls.rdQLenPdf::36                      0                       # What read queue length does an incoming req see
system.mem_ctrls.rdQLenPdf::37                      0                       # What read queue length does an incoming req see
system.mem_ctrls.rdQLenPdf::38                      0                       # What read queue length does an incoming req see
system.mem_ctrls.rdQLenPdf::39                      0                       # What read queue length does an incoming req see
system.mem_ctrls.rdQLenPdf::40                      0                       # What read queue length does an incoming req see
system.mem_ctrls.rdQLenPdf::41                      0                       # What read queue length does an incoming req see
system.mem_ctrls.rdQLenPdf::42                      0                       # What read queue length does an incoming req see
system.mem_ctrls.rdQLenPdf::43                      0                       # What read queue length does an incoming req see
system.mem_ctrls.rdQLenPdf::44                      0                       # What read queue length does an incoming req see
system.mem_ctrls.rdQLenPdf::45                      0                       # What read queue length does an incoming req see
system.mem_ctrls.rdQLenPdf::46                      0                       # What read queue length does an incoming req see
system.mem_ctrls.rdQLenPdf::47                      0                       # What read queue length does an incoming req see
system.mem_ctrls.rdQLenPdf::48                      0                       # What read queue length does an incoming req see
system.mem_ctrls.rdQLenPdf::49                      0                       # What read queue length does an incoming req see
system.mem_ctrls.rdQLenPdf::50                      0                       # What read queue length does an incoming req see
system.mem_ctrls.rdQLenPdf::51                      0                       # What read queue length does an incoming req see
system.mem_ctrls.rdQLenPdf::52                      0                       # What read queue length does an incoming req see
system.mem_ctrls.rdQLenPdf::53                      0                       # What read queue length does an incoming req see
system.mem_ctrls.rdQLenPdf::54                      0                       # What read queue length does an incoming req see
system.mem_ctrls.rdQLenPdf::55                      0                       # What read queue length does an incoming req see
system.mem_ctrls.rdQLenPdf::56                      0                       # What read queue length does an incoming req see
system.mem_ctrls.rdQLenPdf::57                      0                       # What read queue length does an incoming req see
system.mem_ctrls.rdQLenPdf::58                      0                       # What read queue length does an incoming req see
system.mem_ctrls.rdQLenPdf::59                      0                       # What read queue length does an incoming req see
system.mem_ctrls.rdQLenPdf::60                      0                       # What read queue length does an incoming req see
system.mem_ctrls.rdQLenPdf::61                      0                       # What read queue length does an incoming req see
system.mem_ctrls.rdQLenPdf::62                      0                       # What read queue length does an incoming req see
system.mem_ctrls.rdQLenPdf::63                      0                       # What read queue length does an incoming req see
system.mem_ctrls.wrQLenPdf::0                       1                       # What write queue length does an incoming req see
system.mem_ctrls.wrQLenPdf::1                       1                       # What write queue length does an incoming req see
system.mem_ctrls.wrQLenPdf::2                       1                       # What write queue length does an incoming req see
system.mem_ctrls.wrQLenPdf::3                       1                       # What write queue length does an incoming req see
system.mem_ctrls.wrQLenPdf::4                       1                       # What write queue length does an incoming req see
system.mem_ctrls.wrQLenPdf::5                       1                       # What write queue length does an incoming req see
system.mem_ctrls.wrQLenPdf::6                       1                       # What write queue length does an incoming req see
system.mem_ctrls.wrQLenPdf::7                       1                       # What write queue length does an incoming req see
system.mem_ctrls.wrQLenPdf::8                       1                       # What write queue length does an incoming req see
system.mem_ctrls.wrQLenPdf::9                       1                       # What write queue length does an incoming req see
system.mem_ctrls.wrQLenPdf::10                      1                       # What write queue length does an incoming req see
system.mem_ctrls.wrQLenPdf::11                      1                       # What write queue length does an incoming req see
system.mem_ctrls.wrQLenPdf::12                      1                       # What write queue length does an incoming req see
system.mem_ctrls.wrQLenPdf::13                      1                       # What write queue length does an incoming req see
system.mem_ctrls.wrQLenPdf::14                      1                       # What write queue length does an incoming req see
system.mem_ctrls.wrQLenPdf::15                      1                       # What write queue length does an incoming req see
system.mem_ctrls.wrQLenPdf::16                      1                       # What write queue length does an incoming req see
system.mem_ctrls.wrQLenPdf::17                      1                       # What write queue length does an incoming req see
system.mem_ctrls.wrQLenPdf::18                      1                       # What write queue length does an incoming req see
system.mem_ctrls.wrQLenPdf::19                      1                       # What write queue length does an incoming req see
system.mem_ctrls.wrQLenPdf::20                      1                       # What write queue length does an incoming req see
system.mem_ctrls.wrQLenPdf::21                      1                       # What write queue length does an incoming req see
system.mem_ctrls.wrQLenPdf::22                      1                       # What write queue length does an incoming req see
system.mem_ctrls.wrQLenPdf::23                      1                       # What write queue length does an incoming req see
system.mem_ctrls.wrQLenPdf::24                      1                       # What write queue length does an incoming req see
system.mem_ctrls.wrQLenPdf::25                      1                       # What write queue length does an incoming req see
system.mem_ctrls.wrQLenPdf::26                      1                       # What write queue length does an incoming req see
system.mem_ctrls.wrQLenPdf::27                      1                       # What write queue length does an incoming req see
system.mem_ctrls.wrQLenPdf::28                      1                       # What write queue length does an incoming req see
system.mem_ctrls.wrQLenPdf::29                      1                       # What write queue length does an incoming req see
system.mem_ctrls.wrQLenPdf::30                      1                       # What write queue length does an incoming req see
system.mem_ctrls.wrQLenPdf::31                      1                       # What write queue length does an incoming req see
system.mem_ctrls.wrQLenPdf::32                      1                       # What write queue length does an incoming req see
system.mem_ctrls.wrQLenPdf::33                      1                       # What write queue length does an incoming req see
system.mem_ctrls.wrQLenPdf::34                      1                       # What write queue length does an incoming req see
system.mem_ctrls.wrQLenPdf::35                      1                       # What write queue length does an incoming req see
system.mem_ctrls.wrQLenPdf::36                      1                       # What write queue length does an incoming req see
system.mem_ctrls.wrQLenPdf::37                      1                       # What write queue length does an incoming req see
system.mem_ctrls.wrQLenPdf::38                      1                       # What write queue length does an incoming req see
system.mem_ctrls.wrQLenPdf::39                      1                       # What write queue length does an incoming req see
system.mem_ctrls.wrQLenPdf::40                      1                       # What write queue length does an incoming req see
system.mem_ctrls.wrQLenPdf::41                      1                       # What write queue length does an incoming req see
system.mem_ctrls.wrQLenPdf::42                      1                       # What write queue length does an incoming req see
system.mem_ctrls.wrQLenPdf::43                      1                       # What write queue length does an incoming req see
system.mem_ctrls.wrQLenPdf::44                      1                       # What write queue length does an incoming req see
system.mem_ctrls.wrQLenPdf::45                      1                       # What write queue length does an incoming req see
system.mem_ctrls.wrQLenPdf::46                      1                       # What write queue length does an incoming req see
system.mem_ctrls.wrQLenPdf::47                 126260                       # What write queue length does an incoming req see
system.mem_ctrls.wrQLenPdf::48                 165328                       # What write queue length does an incoming req see
system.mem_ctrls.wrQLenPdf::49                 265142                       # What write queue length does an incoming req see
system.mem_ctrls.wrQLenPdf::50                 306212                       # What write queue length does an incoming req see
system.mem_ctrls.wrQLenPdf::51                 306222                       # What write queue length does an incoming req see
system.mem_ctrls.wrQLenPdf::52                 306226                       # What write queue length does an incoming req see
system.mem_ctrls.wrQLenPdf::53                 306225                       # What write queue length does an incoming req see
system.mem_ctrls.wrQLenPdf::54                 306314                       # What write queue length does an incoming req see
system.mem_ctrls.wrQLenPdf::55                 306334                       # What write queue length does an incoming req see
system.mem_ctrls.wrQLenPdf::56                 306284                       # What write queue length does an incoming req see
system.mem_ctrls.wrQLenPdf::57                 306262                       # What write queue length does an incoming req see
system.mem_ctrls.wrQLenPdf::58                 306213                       # What write queue length does an incoming req see
system.mem_ctrls.wrQLenPdf::59                 306213                       # What write queue length does an incoming req see
system.mem_ctrls.wrQLenPdf::60                 306213                       # What write queue length does an incoming req see
system.mem_ctrls.wrQLenPdf::61                 306216                       # What write queue length does an incoming req see
system.mem_ctrls.wrQLenPdf::62                 306216                       # What write queue length does an incoming req see
system.mem_ctrls.wrQLenPdf::63                 306213                       # What write queue length does an incoming req see
system.mem_ctrls.wrQLenPdf::64                 306213                       # What write queue length does an incoming req see
system.mem_ctrls.wrQLenPdf::65                  80133                       # What write queue length does an incoming req see
system.mem_ctrls.wrQLenPdf::66                      0                       # What write queue length does an incoming req see
system.mem_ctrls.wrQLenPdf::67                      0                       # What write queue length does an incoming req see
system.mem_ctrls.wrQLenPdf::68                      0                       # What write queue length does an incoming req see
system.mem_ctrls.wrQLenPdf::69                      0                       # What write queue length does an incoming req see
system.mem_ctrls.wrQLenPdf::70                      0                       # What write queue length does an incoming req see
system.mem_ctrls.wrQLenPdf::71                      0                       # What write queue length does an incoming req see
system.mem_ctrls.wrQLenPdf::72                      0                       # What write queue length does an incoming req see
system.mem_ctrls.wrQLenPdf::73                      0                       # What write queue length does an incoming req see
system.mem_ctrls.wrQLenPdf::74                      0                       # What write queue length does an incoming req see
system.mem_ctrls.wrQLenPdf::75                      0                       # What write queue length does an incoming req see
system.mem_ctrls.wrQLenPdf::76                      0                       # What write queue length does an incoming req see
system.mem_ctrls.wrQLenPdf::77                      0                       # What write queue length does an incoming req see
system.mem_ctrls.wrQLenPdf::78                      0                       # What write queue length does an incoming req see
system.mem_ctrls.wrQLenPdf::79                      0                       # What write queue length does an incoming req see
system.mem_ctrls.wrQLenPdf::80                      0                       # What write queue length does an incoming req see
system.mem_ctrls.wrQLenPdf::81                      0                       # What write queue length does an incoming req see
system.mem_ctrls.wrQLenPdf::82                      0                       # What write queue length does an incoming req see
system.mem_ctrls.wrQLenPdf::83                      0                       # What write queue length does an incoming req see
system.mem_ctrls.wrQLenPdf::84                      0                       # What write queue length does an incoming req see
system.mem_ctrls.wrQLenPdf::85                      0                       # What write queue length does an incoming req see
system.mem_ctrls.wrQLenPdf::86                      0                       # What write queue length does an incoming req see
system.mem_ctrls.wrQLenPdf::87                      0                       # What write queue length does an incoming req see
system.mem_ctrls.wrQLenPdf::88                      0                       # What write queue length does an incoming req see
system.mem_ctrls.wrQLenPdf::89                      0                       # What write queue length does an incoming req see
system.mem_ctrls.wrQLenPdf::90                      0                       # What write queue length does an incoming req see
system.mem_ctrls.wrQLenPdf::91                      0                       # What write queue length does an incoming req see
system.mem_ctrls.wrQLenPdf::92                      0                       # What write queue length does an incoming req see
system.mem_ctrls.wrQLenPdf::93                      0                       # What write queue length does an incoming req see
system.mem_ctrls.wrQLenPdf::94                      0                       # What write queue length does an incoming req see
system.mem_ctrls.wrQLenPdf::95                      0                       # What write queue length does an incoming req see
system.mem_ctrls.wrQLenPdf::96                      0                       # What write queue length does an incoming req see
system.mem_ctrls.wrQLenPdf::97                      0                       # What write queue length does an incoming req see
system.mem_ctrls.wrQLenPdf::98                      0                       # What write queue length does an incoming req see
system.mem_ctrls.wrQLenPdf::99                      0                       # What write queue length does an incoming req see
system.mem_ctrls.wrQLenPdf::100                     0                       # What write queue length does an incoming req see
system.mem_ctrls.wrQLenPdf::101                     0                       # What write queue length does an incoming req see
system.mem_ctrls.wrQLenPdf::102                     0                       # What write queue length does an incoming req see
system.mem_ctrls.wrQLenPdf::103                     0                       # What write queue length does an incoming req see
system.mem_ctrls.wrQLenPdf::104                     0                       # What write queue length does an incoming req see
system.mem_ctrls.wrQLenPdf::105                     0                       # What write queue length does an incoming req see
system.mem_ctrls.wrQLenPdf::106                     0                       # What write queue length does an incoming req see
system.mem_ctrls.wrQLenPdf::107                     0                       # What write queue length does an incoming req see
system.mem_ctrls.wrQLenPdf::108                     0                       # What write queue length does an incoming req see
system.mem_ctrls.wrQLenPdf::109                     0                       # What write queue length does an incoming req see
system.mem_ctrls.wrQLenPdf::110                     0                       # What write queue length does an incoming req see
system.mem_ctrls.wrQLenPdf::111                     0                       # What write queue length does an incoming req see
system.mem_ctrls.wrQLenPdf::112                     0                       # What write queue length does an incoming req see
system.mem_ctrls.wrQLenPdf::113                     0                       # What write queue length does an incoming req see
system.mem_ctrls.wrQLenPdf::114                     0                       # What write queue length does an incoming req see
system.mem_ctrls.wrQLenPdf::115                     0                       # What write queue length does an incoming req see
system.mem_ctrls.wrQLenPdf::116                     0                       # What write queue length does an incoming req see
system.mem_ctrls.wrQLenPdf::117                     0                       # What write queue length does an incoming req see
system.mem_ctrls.wrQLenPdf::118                     0                       # What write queue length does an incoming req see
system.mem_ctrls.wrQLenPdf::119                     0                       # What write queue length does an incoming req see
system.mem_ctrls.wrQLenPdf::120                     0                       # What write queue length does an incoming req see
system.mem_ctrls.wrQLenPdf::121                     0                       # What write queue length does an incoming req see
system.mem_ctrls.wrQLenPdf::122                     0                       # What write queue length does an incoming req see
system.mem_ctrls.wrQLenPdf::123                     0                       # What write queue length does an incoming req see
system.mem_ctrls.wrQLenPdf::124                     0                       # What write queue length does an incoming req see
system.mem_ctrls.wrQLenPdf::125                     0                       # What write queue length does an incoming req see
system.mem_ctrls.wrQLenPdf::126                     0                       # What write queue length does an incoming req see
system.mem_ctrls.wrQLenPdf::127                     0                       # What write queue length does an incoming req see
system.mem_ctrls.rdPerTurnAround::samples       306213                       # Reads before turning the bus around for writes
system.mem_ctrls.rdPerTurnAround::mean      17.191857                       # Reads before turning the bus around for writes
system.mem_ctrls.rdPerTurnAround::gmean     17.054091                       # Reads before turning the bus around for writes
system.mem_ctrls.rdPerTurnAround::stdev     54.465228                       # Reads before turning the bus around for writes
system.mem_ctrls.rdPerTurnAround::0-511        306211    100.00%    100.00% # Reads before turning the bus around for writes
system.mem_ctrls.rdPerTurnAround::1024-1535            1      0.00%    100.00% # Reads before turning the bus around for writes
system.mem_ctrls.rdPerTurnAround::29696-30207            1      0.00%    100.00% # Reads before turning the bus around for writes
system.mem_ctrls.rdPerTurnAround::total        306213                       # Reads before turning the bus around for writes
system.mem_ctrls.wrPerTurnAround::samples       306213                       # Writes before turning the bus around for reads
system.mem_ctrls.wrPerTurnAround::mean      17.081022                       # Writes before turning the bus around for reads
system.mem_ctrls.wrPerTurnAround::gmean     17.048577                       # Writes before turning the bus around for reads
system.mem_ctrls.wrPerTurnAround::stdev      1.055226                       # Writes before turning the bus around for reads
system.mem_ctrls.wrPerTurnAround::16           140455     45.87%     45.87% # Writes before turning the bus around for reads
system.mem_ctrls.wrPerTurnAround::17            18878      6.16%     52.03% # Writes before turning the bus around for reads
system.mem_ctrls.wrPerTurnAround::18           128736     42.04%     94.07% # Writes before turning the bus around for reads
system.mem_ctrls.wrPerTurnAround::19            17905      5.85%     99.92% # Writes before turning the bus around for reads
system.mem_ctrls.wrPerTurnAround::20              238      0.08%    100.00% # Writes before turning the bus around for reads
system.mem_ctrls.wrPerTurnAround::22                1      0.00%    100.00% # Writes before turning the bus around for reads
system.mem_ctrls.wrPerTurnAround::total        306213                       # Writes before turning the bus around for reads
system.mem_ctrls.bytesReadWrQ                       0                       # Total number of bytes read from write queue
system.mem_ctrls.bytesReadSys               336920064                       # Total read bytes from the system interface side
system.mem_ctrls.bytesWrittenSys            334751104                       # Total written bytes from the system interface side
system.mem_ctrls.avgRdBWSys                   1003.32                       # Average system read bandwidth in MiByte/s
system.mem_ctrls.avgWrBWSys                    996.86                       # Average system write bandwidth in MiByte/s
system.mem_ctrls.totGap                  335805661000                       # Total gap between requests
system.mem_ctrls.avgGap                      63994.30                       # Average gap between requests
system.mem_ctrls.requestorReadBytes::.cpu.inst        49280                       # Per-requestor bytes read from memory
system.mem_ctrls.requestorReadBytes::.cpu.data    336870784                       # Per-requestor bytes read from memory
system.mem_ctrls.requestorWriteBytes::.writebacks    334747584                       # Per-requestor bytes write to memory
system.mem_ctrls.requestorReadRate::.cpu.inst 146751.524643890763                       # Per-requestor bytes read from memory rate (Bytes/sec)
system.mem_ctrls.requestorReadRate::.cpu.data 1003171695.616534113884                       # Per-requestor bytes read from memory rate (Bytes/sec)
system.mem_ctrls.requestorWriteRate::.writebacks 996848991.941130161285                       # Per-requestor bytes write to memory rate (Bytes/sec)
system.mem_ctrls.requestorReadAccesses::.cpu.inst          770                       # Per-requestor read serviced memory accesses
system.mem_ctrls.requestorReadAccesses::.cpu.data      5263606                       # Per-requestor read serviced memory accesses
system.mem_ctrls.requestorWriteAccesses::.writebacks      5230486                       # Per-requestor write serviced memory accesses
system.mem_ctrls.requestorReadTotalLat::.cpu.inst     23606148                       # Per-requestor read total memory access latency
system.mem_ctrls.requestorReadTotalLat::.cpu.data 190858103312                       # Per-requestor read total memory access latency
system.mem_ctrls.requestorWriteTotalLat::.writebacks 18600279276714                       # Per-requestor write total memory access latency
system.mem_ctrls.requestorReadAvgLat::.cpu.inst     30657.34                       # Per-requestor read average memory access latency
system.mem_ctrls.requestorReadAvgLat::.cpu.data     36259.95                       # Per-requestor read average memory access latency
system.mem_ctrls.requestorWriteAvgLat::.writebacks   3556128.30                       # Per-requestor write average memory access latency
system.mem_ctrls.dram.bytes_read::.cpu.inst        49280                       # Number of bytes read from this memory
system.mem_ctrls.dram.bytes_read::.cpu.data    336870784                       # Number of bytes read from this memory
system.mem_ctrls.dram.bytes_read::total     336920064                       # Number of bytes read from this memory
system.mem_ctrls.dram.bytes_inst_read::.cpu.inst        49280                       # Number of instructions bytes read from this memory
system.mem_ctrls.dram.bytes_inst_read::total        49280                       # Number of instructions bytes read from this memory
system.mem_ctrls.dram.bytes_written::.writebacks    334751104                       # Number of bytes written to this memory
system.mem_ctrls.dram.bytes_written::total    334751104                       # Number of bytes written to this memory
system.mem_ctrls.dram.num_reads::.cpu.inst          385                       # Number of read requests responded to by this memory
system.mem_ctrls.dram.num_reads::.cpu.data      2631803                       # Number of read requests responded to by this memory
system.mem_ctrls.dram.num_reads::total        2632188                       # Number of read requests responded to by this memory
system.mem_ctrls.dram.num_writes::.writebacks      2615243                       # Number of write requests responded to by this memory
system.mem_ctrls.dram.num_writes::total       2615243                       # Number of write requests responded to by this memory
system.mem_ctrls.dram.bw_read::.cpu.inst       146752                       # Total read bandwidth from this memory (bytes/s)
system.mem_ctrls.dram.bw_read::.cpu.data   1003171696                       # Total read bandwidth from this memory (bytes/s)
system.mem_ctrls.dram.bw_read::total       1003318447                       # Total read bandwidth from this memory (bytes/s)
system.mem_ctrls.dram.bw_inst_read::.cpu.inst       146752                       # Instruction read bandwidth from this memory (bytes/s)
system.mem_ctrls.dram.bw_inst_read::total       146752                       # Instruction read bandwidth from this memory (bytes/s)
system.mem_ctrls.dram.bw_write::.writebacks    996859474                       # Write bandwidth from this memory (bytes/s)
system.mem_ctrls.dram.bw_write::total       996859474                       # Write bandwidth from this memory (bytes/s)
system.mem_ctrls.dram.bw_total::.writebacks    996859474                       # Total bandwidth to/from this memory (bytes/s)
system.mem_ctrls.dram.bw_total::.cpu.inst       146752                       # Total bandwidth to/from this memory (bytes/s)
system.mem_ctrls.dram.bw_total::.cpu.data   1003171696                       # Total bandwidth to/from this memory (bytes/s)
system.mem_ctrls.dram.bw_total::total      2000177921                       # Total bandwidth to/from this memory (bytes/s)
system.mem_ctrls.dram.readBursts              5264376                       # Number of DRAM read bursts
system.mem_ctrls.dram.writeBursts             5230431                       # Number of DRAM write bursts
system.mem_ctrls.dram.perBankRdBursts::0       164420                       # Per bank write bursts
system.mem_ctrls.dram.perBankRdBursts::1       164546                       # Per bank write bursts
system.mem_ctrls.dram.perBankRdBursts::2       164548                       # Per bank write bursts
system.mem_ctrls.dram.perBankRdBursts::3       164620                       # Per bank write bursts
system.mem_ctrls.dram.perBankRdBursts::4       164568                       # Per bank write bursts
system.mem_ctrls.dram.perBankRdBursts::5       164614                       # Per bank write bursts
system.mem_ctrls.dram.perBankRdBursts::6       164620                       # Per bank write bursts
system.mem_ctrls.dram.perBankRdBursts::7       164616                       # Per bank write bursts
system.mem_ctrls.dram.perBankRdBursts::8       164608                       # Per bank write bursts
system.mem_ctrls.dram.perBankRdBursts::9       164636                       # Per bank write bursts
system.mem_ctrls.dram.perBankRdBursts::10       164628                       # Per bank write bursts
system.mem_ctrls.dram.perBankRdBursts::11       164618                       # Per bank write bursts
system.mem_ctrls.dram.perBankRdBursts::12       164614                       # Per bank write bursts
system.mem_ctrls.dram.perBankRdBursts::13       164662                       # Per bank write bursts
system.mem_ctrls.dram.perBankRdBursts::14       164646                       # Per bank write bursts
system.mem_ctrls.dram.perBankRdBursts::15       164586                       # Per bank write bursts
system.mem_ctrls.dram.perBankRdBursts::16       164532                       # Per bank write bursts
system.mem_ctrls.dram.perBankRdBursts::17       164586                       # Per bank write bursts
system.mem_ctrls.dram.perBankRdBursts::18       164568                       # Per bank write bursts
system.mem_ctrls.dram.perBankRdBursts::19       164482                       # Per bank write bursts
system.mem_ctrls.dram.perBankRdBursts::20       164450                       # Per bank write bursts
system.mem_ctrls.dram.perBankRdBursts::21       164492                       # Per bank write bursts
system.mem_ctrls.dram.perBankRdBursts::22       164490                       # Per bank write bursts
system.mem_ctrls.dram.perBankRdBursts::23       164428                       # Per bank write bursts
system.mem_ctrls.dram.perBankRdBursts::24       164308                       # Per bank write bursts
system.mem_ctrls.dram.perBankRdBursts::25       164250                       # Per bank write bursts
system.mem_ctrls.dram.perBankRdBursts::26       164298                       # Per bank write bursts
system.mem_ctrls.dram.perBankRdBursts::27       164326                       # Per bank write bursts
system.mem_ctrls.dram.perBankRdBursts::28       164450                       # Per bank write bursts
system.mem_ctrls.dram.perBankRdBursts::29       164396                       # Per bank write bursts
system.mem_ctrls.dram.perBankRdBursts::30       164390                       # Per bank write bursts
system.mem_ctrls.dram.perBankRdBursts::31       164380                       # Per bank write bursts
system.mem_ctrls.dram.perBankWrBursts::0       163346                       # Per bank write bursts
system.mem_ctrls.dram.perBankWrBursts::1       163424                       # Per bank write bursts
system.mem_ctrls.dram.perBankWrBursts::2       163496                       # Per bank write bursts
system.mem_ctrls.dram.perBankWrBursts::3       163590                       # Per bank write bursts
system.mem_ctrls.dram.perBankWrBursts::4       163532                       # Per bank write bursts
system.mem_ctrls.dram.perBankWrBursts::5       163590                       # Per bank write bursts
system.mem_ctrls.dram.perBankWrBursts::6       163588                       # Per bank write bursts
system.mem_ctrls.dram.perBankWrBursts::7       163592                       # Per bank write bursts
system.mem_ctrls.dram.perBankWrBursts::8       163584                       # Per bank write bursts
system.mem_ctrls.dram.perBankWrBursts::9       163584                       # Per bank write bursts
system.mem_ctrls.dram.perBankWrBursts::10       163584                       # Per bank write bursts
system.mem_ctrls.dram.perBankWrBursts::11       163584                       # Per bank write bursts
system.mem_ctrls.dram.perBankWrBursts::12       163584                       # Per bank write bursts
system.mem_ctrls.dram.perBankWrBursts::13       163584                       # Per bank write bursts
system.mem_ctrls.dram.perBankWrBursts::14       163584                       # Per bank write bursts
system.mem_ctrls.dram.perBankWrBursts::15       163534                       # Per bank write bursts
system.mem_ctrls.dram.perBankWrBursts::16       163456                       # Per bank write bursts
system.mem_ctrls.dram.perBankWrBursts::17       163528                       # Per bank write bursts
system.mem_ctrls.dram.perBankWrBursts::18       163447                       # Per bank write bursts
system.mem_ctrls.dram.perBankWrBursts::19       163434                       # Per bank write bursts
system.mem_ctrls.dram.perBankWrBursts::20       163410                       # Per bank write bursts
system.mem_ctrls.dram.perBankWrBursts::21       163408                       # Per bank write bursts
system.mem_ctrls.dram.perBankWrBursts::22       163410                       # Per bank write bursts
system.mem_ctrls.dram.perBankWrBursts::23       163380                       # Per bank write bursts
[...]
system.cpu.dcache.ReadReq_hits::.cpu.data      2043877                       # number of ReadReq hits
system.cpu.dcache.ReadReq_hits::total         2043877                       # number of ReadReq hits
system.cpu.dcache.ReadReq_misses::.cpu.data          254                       # number of ReadReq misses
system.cpu.dcache.ReadReq_misses::total           254                       # number of ReadReq misses
system.cpu.dcache.ReadReq_miss_latency::.cpu.data     20047000                       # number of ReadReq miss cycles
system.cpu.dcache.ReadReq_miss_latency::total     20047000                       # number of ReadReq miss cycles
system.cpu.dcache.ReadReq_accesses::.cpu.data      2044131                       # number of ReadReq accesses(hits+misses)
system.cpu.dcache.ReadReq_accesses::total      2044131                       # number of ReadReq accesses(hits+misses)
system.cpu.dcache.ReadReq_miss_rate::.cpu.data     0.000124                       # miss rate for ReadReq accesses
system.cpu.dcache.ReadReq_miss_rate::total     0.000124                       # miss rate for ReadReq accesses
system.cpu.dcache.ReadReq_avg_miss_latency::.cpu.data 78925.196850                       # average ReadReq miss latency
system.cpu.dcache.ReadReq_avg_miss_latency::total 78925.196850                       # average ReadReq miss latency
system.cpu.dcache.ReadReq_mshr_hits::.cpu.data           22                       # number of ReadReq MSHR hits
system.cpu.dcache.ReadReq_mshr_hits::total           22                       # number of ReadReq MSHR hits
system.cpu.dcache.ReadReq_mshr_misses::.cpu.data          232                       # number of ReadReq MSHR misses
system.cpu.dcache.ReadReq_mshr_misses::total          232                       # number of ReadReq MSHR misses
system.cpu.dcache.ReadReq_mshr_miss_latency::.cpu.data     18238000                       # number of ReadReq MSHR miss cycles
system.cpu.dcache.ReadReq_mshr_miss_latency::total     18238000                       # number of ReadReq MSHR miss cycles
system.cpu.dcache.ReadReq_mshr_miss_rate::.cpu.data     0.000113                       # mshr miss rate for ReadReq accesses
system.cpu.dcache.ReadReq_mshr_miss_rate::total     0.000113                       # mshr miss rate for ReadReq accesses
system.cpu.dcache.ReadReq_avg_mshr_miss_latency::.cpu.data 78612.068966                       # average ReadReq mshr miss latency
system.cpu.dcache.ReadReq_avg_mshr_miss_latency::total 78612.068966                       # average ReadReq mshr miss latency
system.cpu.dcache.WriteReq_hits::.cpu.data     79074750                       # number of WriteReq hits
system.cpu.dcache.WriteReq_hits::total       79074750                       # number of WriteReq hits
system.cpu.dcache.WriteReq_misses::.cpu.data      5261851                       # number of WriteReq misses
system.cpu.dcache.WriteReq_misses::total      5261851                       # number of WriteReq misses
system.cpu.dcache.WriteReq_miss_latency::.cpu.data 490431257000                       # number of WriteReq miss cycles
system.cpu.dcache.WriteReq_miss_latency::total 490431257000                       # number of WriteReq miss cycles
system.cpu.dcache.WriteReq_accesses::.cpu.data     84336601                       # number of WriteReq accesses(hits+misses)
system.cpu.dcache.WriteReq_accesses::total     84336601                       # number of WriteReq accesses(hits+misses)
system.cpu.dcache.WriteReq_miss_rate::.cpu.data     0.062391                       # miss rate for WriteReq accesses
system.cpu.dcache.WriteReq_miss_rate::total     0.062391                       # miss rate for WriteReq accesses
system.cpu.dcache.WriteReq_avg_miss_latency::.cpu.data 93205.082584                       # average WriteReq miss latency
system.cpu.dcache.WriteReq_avg_miss_latency::total 93205.082584                       # average WriteReq miss latency
system.cpu.dcache.WriteReq_mshr_hits::.cpu.data      2630233                       # number of WriteReq MSHR hits
system.cpu.dcache.WriteReq_mshr_hits::total      2630233                       # number of WriteReq MSHR hits
system.cpu.dcache.WriteReq_mshr_misses::.cpu.data      2631618                       # number of WriteReq MSHR misses
system.cpu.dcache.WriteReq_mshr_misses::total      2631618                       # number of WriteReq MSHR misses
system.cpu.dcache.WriteReq_mshr_miss_latency::.cpu.data 240676419000                       # number of WriteReq MSHR miss cycles
system.cpu.dcache.WriteReq_mshr_miss_latency::total 240676419000                       # number of WriteReq MSHR miss cycles
system.cpu.dcache.WriteReq_mshr_miss_rate::.cpu.data     0.031204                       # mshr miss rate for WriteReq accesses
system.cpu.dcache.WriteReq_mshr_miss_rate::total     0.031204                       # mshr miss rate for WriteReq accesses
system.cpu.dcache.WriteReq_avg_mshr_miss_latency::.cpu.data 91455.682018                       # average WriteReq mshr miss latency
system.cpu.dcache.WriteReq_avg_mshr_miss_latency::total 91455.682018                       # average WriteReq mshr miss latency
system.cpu.dcache.SoftPFReq_hits::.cpu.data           44                       # number of SoftPFReq hits
system.cpu.dcache.SoftPFReq_hits::total            44                       # number of SoftPFReq hits
system.cpu.dcache.SoftPFReq_misses::.cpu.data           27                       # number of SoftPFReq misses
system.cpu.dcache.SoftPFReq_misses::total           27                       # number of SoftPFReq misses
system.cpu.dcache.SoftPFReq_accesses::.cpu.data           71                       # number of SoftPFReq accesses(hits+misses)
system.cpu.dcache.SoftPFReq_accesses::total           71                       # number of SoftPFReq accesses(hits+misses)
system.cpu.dcache.SoftPFReq_miss_rate::.cpu.data     0.380282                       # miss rate for SoftPFReq accesses
system.cpu.dcache.SoftPFReq_miss_rate::total     0.380282                       # miss rate for SoftPFReq accesses
system.cpu.dcache.SoftPFReq_mshr_misses::.cpu.data           17                       # number of SoftPFReq MSHR misses
system.cpu.dcache.SoftPFReq_mshr_misses::total           17                       # number of SoftPFReq MSHR misses
system.cpu.dcache.SoftPFReq_mshr_miss_latency::.cpu.data      1403500                       # number of SoftPFReq MSHR miss cycles
system.cpu.dcache.SoftPFReq_mshr_miss_latency::total      1403500                       # number of SoftPFReq MSHR miss cycles
system.cpu.dcache.SoftPFReq_mshr_miss_rate::.cpu.data     0.239437                       # mshr miss rate for SoftPFReq accesses
system.cpu.dcache.SoftPFReq_mshr_miss_rate::total     0.239437                       # mshr miss rate for SoftPFReq accesses
system.cpu.dcache.SoftPFReq_avg_mshr_miss_latency::.cpu.data 82558.823529                       # average SoftPFReq mshr miss latency
system.cpu.dcache.SoftPFReq_avg_mshr_miss_latency::total 82558.823529                       # average SoftPFReq mshr miss latency
system.cpu.dcache.LoadLockedReq_hits::.cpu.data           34                       # number of LoadLockedReq hits
system.cpu.dcache.LoadLockedReq_hits::total           34                       # number of LoadLockedReq hits
system.cpu.dcache.LoadLockedReq_accesses::.cpu.data           34                       # number of LoadLockedReq accesses(hits+misses)
system.cpu.dcache.LoadLockedReq_accesses::total           34                       # number of LoadLockedReq accesses(hits+misses)
system.cpu.dcache.StoreCondReq_hits::.cpu.data           34                       # number of StoreCondReq hits
system.cpu.dcache.StoreCondReq_hits::total           34                       # number of StoreCondReq hits
system.cpu.dcache.StoreCondReq_accesses::.cpu.data           34                       # number of StoreCondReq accesses(hits+misses)
system.cpu.dcache.StoreCondReq_accesses::total           34                       # number of StoreCondReq accesses(hits+misses)
system.cpu.dcache.power_state.pwrStateResidencyTicks::UNDEFINED 335805710500                       # Cumulative time (in ticks) in various power states
system.cpu.dcache.tags.tagsinuse           511.795020                       # Cycle average of tags in use
system.cpu.dcache.tags.total_refs            83750605                       # Total number of references to valid blocks.
system.cpu.dcache.tags.sampled_refs           2631866                       # Sample count of references to valid blocks.
system.cpu.dcache.tags.avg_refs             31.821759                       # Average number of references to valid blocks.
system.cpu.dcache.tags.warmup_cycle            184500                       # Cycle when the warmup percentage was hit.
system.cpu.dcache.tags.occ_blocks::.cpu.data   511.795020                       # Average occupied blocks per requestor
system.cpu.dcache.tags.occ_percent::.cpu.data     0.999600                       # Average percentage of cache occupancy
system.cpu.dcache.tags.occ_percent::total     0.999600                       # Average percentage of cache occupancy
system.cpu.dcache.tags.occ_task_id_blocks::1024          512                       # Occupied blocks per task id
system.cpu.dcache.tags.age_task_id_blocks_1024::0           79                       # Occupied blocks per task id
system.cpu.dcache.tags.age_task_id_blocks_1024::1          433                       # Occupied blocks per task id
system.cpu.dcache.tags.occ_task_id_percent::1024            1                       # Percentage of cache occupancy per task id
system.cpu.dcache.tags.tag_accesses         175393608                       # Number of tag accesses
system.cpu.dcache.tags.data_accesses        175393608                       # Number of data accesses
system.cpu.dcache.tags.power_state.pwrStateResidencyTicks::UNDEFINED 335805710500                       # Cumulative time (in ticks) in various power states
system.cpu.power_state.pwrStateResidencyTicks::ON 335805710500                       # Cumulative time (in ticks) in various power states
system.cpu.branchPred.lookups                10658252                       # Number of BP lookups
system.cpu.branchPred.condPredicted          10650013                       # Number of conditional branches predicted
system.cpu.branchPred.condIncorrect              1451                       # Number of conditional branches incorrect
system.cpu.branchPred.BTBLookups             10650211                       # Number of BTB lookups
system.cpu.branchPred.BTBHits                10648839                       # Number of BTB hits
system.cpu.branchPred.BTBHitPct             99.987118                       # BTB Hit Percentage
system.cpu.branchPred.RASUsed                    2719                       # Number of times the RAS was used to get a target.
system.cpu.branchPred.RASIncorrect                  1                       # Number of incorrect RAS predictions.
system.cpu.branchPred.indirectLookups             195                       # Number of indirect predictor lookups.
system.cpu.branchPred.indirectHits                 18                       # Number of indirect target hits.
system.cpu.branchPred.indirectMisses              177                       # Number of indirect misses.
system.cpu.branchPred.indirectMispredicted          101                       # Number of mispredicted indirect branches.
system.cpu.fetch2.intInstructions            45071098                       # Number of integer instructions successfully decoded
system.cpu.fetch2.fpInstructions                    0                       # Number of floating point instructions successfully decoded
system.cpu.fetch2.vecInstructions                   0                       # Number of SIMD instructions successfully decoded
system.cpu.fetch2.loadInstructions            2086443                       # Number of memory load instructions successfully decoded
system.cpu.fetch2.storeInstructions            169157                       # Number of memory store instructions successfully decoded
system.cpu.fetch2.amoInstructions                   0                       # Number of memory atomic instructions successfully decoded
system.cpu.itb.instHits                             0                       # ITB inst hits
system.cpu.itb.instMisses                           0                       # ITB inst misses
system.cpu.itb.readHits                             0                       # DTB read hits
system.cpu.itb.readMisses                           0                       # DTB read misses
system.cpu.itb.writeHits                            0                       # DTB write hits
system.cpu.itb.writeMisses                          0                       # DTB write misses
system.cpu.itb.inserts                              0                       # Number of times an entry is inserted into the TLB
system.cpu.itb.flushTlb                             0                       # Number of times complete TLB was flushed
system.cpu.itb.flushTlbMva                          0                       # Number of times TLB was flushed by MVA
system.cpu.itb.flushTlbMvaAsid                      0                       # Number of times TLB was flushed by MVA & ASID
system.cpu.itb.flushTlbAsid                         0                       # Number of times TLB was flushed by ASID
system.cpu.itb.flushedEntries                       0                       # Number of entries that have been flushed from TLB
system.cpu.itb.alignFaults                          0                       # Number of TLB faults due to alignment restrictions
system.cpu.itb.prefetchFaults                       0                       # Number of TLB faults due to prefetch
system.cpu.itb.domainFaults                         0                       # Number of TLB faults due to domain restrictions
system.cpu.itb.permsFaults                          0                       # Number of TLB faults due to permissions restrictions
system.cpu.itb.readAccesses                         0                       # DTB read accesses
system.cpu.itb.writeAccesses                        0                       # DTB write accesses
system.cpu.itb.instAccesses                         0                       # ITB inst accesses
system.cpu.itb.hits                                 0                       # Total TLB (inst and data) hits
system.cpu.itb.misses                               0                       # Total TLB (inst and data) misses
system.cpu.itb.accesses                             0                       # Total TLB (inst and data) accesses
system.cpu.itb.walker.walks                         0                       # Table walker walks requested
system.cpu.itb.walker.requestOrigin_Requested::Data            0                       # Table walker requests started/completed, data/inst
system.cpu.itb.walker.requestOrigin_Requested::Inst            0                       # Table walker requests started/completed, data/inst
system.cpu.itb.walker.requestOrigin_Requested::total            0                       # Table walker requests started/completed, data/inst
system.cpu.itb.walker.requestOrigin_Completed::Data            0                       # Table walker requests started/completed, data/inst
system.cpu.itb.walker.requestOrigin_Completed::Inst            0                       # Table walker requests started/completed, data/inst
system.cpu.itb.walker.requestOrigin_Completed::total            0                       # Table walker requests started/completed, data/inst
system.cpu.itb.walker.requestOrigin::total            0                       # Table walker requests started/completed, data/inst
system.cpu.itb.walker.power_state.pwrStateResidencyTicks::UNDEFINED 335805710500                       # Cumulative time (in ticks) in various power states
system.cpu.itb.stage2_mmu.stage2_tlb.instHits            0                       # ITB inst hits
system.cpu.itb.stage2_mmu.stage2_tlb.instMisses            0                       # ITB inst misses
system.cpu.itb.stage2_mmu.stage2_tlb.readHits            0                       # DTB read hits
system.cpu.itb.stage2_mmu.stage2_tlb.readMisses            0                       # DTB read misses
system.cpu.itb.stage2_mmu.stage2_tlb.writeHits            0                       # DTB write hits
system.cpu.itb.stage2_mmu.stage2_tlb.writeMisses            0                       # DTB write misses
system.cpu.itb.stage2_mmu.stage2_tlb.inserts            0                       # Number of times an entry is inserted into the TLB
system.cpu.itb.stage2_mmu.stage2_tlb.flushTlb            0                       # Number of times complete TLB was flushed
system.cpu.itb.stage2_mmu.stage2_tlb.flushTlbMva            0                       # Number of times TLB was flushed by MVA
system.cpu.itb.stage2_mmu.stage2_tlb.flushTlbMvaAsid            0                       # Number of times TLB was flushed by MVA & ASID
system.cpu.itb.stage2_mmu.stage2_tlb.flushTlbAsid            0                       # Number of times TLB was flushed by ASID
system.cpu.itb.stage2_mmu.stage2_tlb.flushedEntries            0                       # Number of entries that have been flushed from TLB
system.cpu.itb.stage2_mmu.stage2_tlb.alignFaults            0                       # Number of TLB faults due to alignment restrictions
system.cpu.itb.stage2_mmu.stage2_tlb.prefetchFaults            0                       # Number of TLB faults due to prefetch
system.cpu.itb.stage2_mmu.stage2_tlb.domainFaults            0                       # Number of TLB faults due to domain restrictions
system.cpu.itb.stage2_mmu.stage2_tlb.permsFaults            0                       # Number of TLB faults due to permissions restrictions
system.cpu.itb.stage2_mmu.stage2_tlb.readAccesses            0                       # DTB read accesses
system.cpu.itb.stage2_mmu.stage2_tlb.writeAccesses            0                       # DTB write accesses
system.cpu.itb.stage2_mmu.stage2_tlb.instAccesses            0                       # ITB inst accesses
system.cpu.itb.stage2_mmu.stage2_tlb.hits            0                       # Total TLB (inst and data) hits
system.cpu.itb.stage2_mmu.stage2_tlb.misses            0                       # Total TLB (inst and data) misses
system.cpu.itb.stage2_mmu.stage2_tlb.accesses            0                       # Total TLB (inst and data) accesses
system.cpu.itb.stage2_mmu.stage2_tlb.walker.walks            0                       # Table walker walks requested
system.cpu.itb.stage2_mmu.stage2_tlb.walker.requestOrigin_Requested::Data            0                       # Table walker requests started/completed, data/inst
system.cpu.itb.stage2_mmu.stage2_tlb.walker.requestOrigin_Requested::Inst            0                       # Table walker requests started/completed, data/inst
system.cpu.itb.stage2_mmu.stage2_tlb.walker.requestOrigin_Requested::total            0                       # Table walker requests started/completed, data/inst
system.cpu.itb.stage2_mmu.stage2_tlb.walker.requestOrigin_Completed::Data            0                       # Table walker requests started/completed, data/inst
system.cpu.itb.stage2_mmu.stage2_tlb.walker.requestOrigin_Completed::Inst            0                       # Table walker requests started/completed, data/inst
system.cpu.itb.stage2_mmu.stage2_tlb.walker.requestOrigin_Completed::total            0                       # Table walker requests started/completed, data/inst
system.cpu.itb.stage2_mmu.stage2_tlb.walker.requestOrigin::total            0                       # Table walker requests started/completed, data/inst
system.cpu.itb.stage2_mmu.stage2_tlb.walker.power_state.pwrStateResidencyTicks::UNDEFINED 335805710500                       # Cumulative time (in ticks) in various power states

---------- End Simulation Statistics   ----------
