
---------- Begin Simulation Statistics ----------
final_tick                                62695331500                       # Number of ticks from beginning of simulation (restored from checkpoints and never reset)
host_inst_rate                                 314051                       # Simulator instruction rate (inst/s)
host_mem_usage                                 680944                       # Number of bytes of host memory used
host_op_rate                                   343670                       # Simulator op (including micro ops) rate (op/s)
host_seconds                                   318.42                       # Real time elapsed on the host
host_tick_rate                              196895311                       # Simulator tick rate (ticks/s)
sim_freq                                 1000000000000                       # Frequency of simulated ticks
sim_insts                                   100000001                       # Number of instructions simulated
sim_ops                                     109431277                       # Number of ops (including micro ops) simulated
sim_seconds                                  0.062695                       # Number of seconds simulated
sim_ticks                                 62695331500                       # Number of ticks simulated
system.cpu.committedInsts                   100000001                       # Number of instructions committed
system.cpu.committedOps                     109431277                       # Number of ops (including micro ops) committed
system.cpu.cpi                               1.253907                       # CPI: cycles per instruction
system.cpu.discardedOps                        376455                       # Number of ops (including micro ops) which were discarded before commit
system.cpu.idleCycles                        10521799                       # Total number of cycles that the object has spent stopped
system.cpu.ipc                               0.797508                       # IPC: instructions per cycle
system.cpu.numCycles                        125390663                       # number of cpu cycles simulated
system.cpu.numFetchSuspends                         0                       # Number of times Execute suspended instruction fetching
system.cpu.numWorkItemsCompleted                    0                       # number of work items this cpu completed
system.cpu.numWorkItemsStarted                      0                       # number of work items this cpu started
system.cpu.op_class_0::No_OpClass                   0      0.00%      0.00% # Class of committed instruction
system.cpu.op_class_0::IntAlu                72955010     66.67%     66.67% # Class of committed instruction
system.cpu.op_class_0::IntMult                 568364      0.52%     67.19% # Class of committed instruction
system.cpu.op_class_0::IntDiv                       0      0.00%     67.19% # Class of committed instruction
system.cpu.op_class_0::FloatAdd                     0      0.00%     67.19% # Class of committed instruction
system.cpu.op_class_0::FloatCmp                     0      0.00%     67.19% # Class of committed instruction
system.cpu.op_class_0::FloatCvt                     0      0.00%     67.19% # Class of committed instruction
system.cpu.op_class_0::FloatMult                    0      0.00%     67.19% # Class of committed instruction
system.cpu.op_class_0::FloatMultAcc                 0      0.00%     67.19% # Class of committed instruction
system.cpu.op_class_0::FloatDiv                     0      0.00%     67.19% # Class of committed instruction
system.cpu.op_class_0::FloatMisc                    0      0.00%     67.19% # Class of committed instruction
system.cpu.op_class_0::FloatSqrt                    0      0.00%     67.19% # Class of committed instruction
system.cpu.op_class_0::SimdAdd                 241336      0.22%     67.41% # Class of committed instruction
system.cpu.op_class_0::SimdAddAcc                   0      0.00%     67.41% # Class of committed instruction
system.cpu.op_class_0::SimdAlu                 154628      0.14%     67.55% # Class of committed instruction
system.cpu.op_class_0::SimdCmp                 120668      0.11%     67.66% # Class of committed instruction
system.cpu.op_class_0::SimdCvt                      0      0.00%     67.66% # Class of committed instruction
system.cpu.op_class_0::SimdMisc                 44543      0.04%     67.70% # Class of committed instruction
system.cpu.op_class_0::SimdMult                     0      0.00%     67.70% # Class of committed instruction
system.cpu.op_class_0::SimdMultAcc                  0      0.00%     67.70% # Class of committed instruction
system.cpu.op_class_0::SimdShift                    0      0.00%     67.70% # Class of committed instruction
system.cpu.op_class_0::SimdShiftAcc                 0      0.00%     67.70% # Class of committed instruction
system.cpu.op_class_0::SimdDiv                      0      0.00%     67.70% # Class of committed instruction
system.cpu.op_class_0::SimdSqrt                     0      0.00%     67.70% # Class of committed instruction
system.cpu.op_class_0::SimdFloatAdd                 0      0.00%     67.70% # Class of committed instruction
system.cpu.op_class_0::SimdFloatAlu                 0      0.00%     67.70% # Class of committed instruction
system.cpu.op_class_0::SimdFloatCmp                 0      0.00%     67.70% # Class of committed instruction
system.cpu.op_class_0::SimdFloatCvt                 0      0.00%     67.70% # Class of committed instruction
system.cpu.op_class_0::SimdFloatDiv                 0      0.00%     67.70% # Class of committed instruction
system.cpu.op_class_0::SimdFloatMisc           166417      0.15%     67.85% # Class of committed instruction
system.cpu.op_class_0::SimdFloatMult                0      0.00%     67.85% # Class of committed instruction
system.cpu.op_class_0::SimdFloatMultAcc             0      0.00%     67.85% # Class of committed instruction
system.cpu.op_class_0::SimdFloatSqrt                0      0.00%     67.85% # Class of committed instruction
system.cpu.op_class_0::SimdReduceAdd                0      0.00%     67.85% # Class of committed instruction
system.cpu.op_class_0::SimdReduceAlu                0      0.00%     67.85% # Class of committed instruction
system.cpu.op_class_0::SimdReduceCmp                0      0.00%     67.85% # Class of committed instruction
system.cpu.op_class_0::SimdFloatReduceAdd            0      0.00%     67.85% # Class of committed instruction
system.cpu.op_class_0::SimdFloatReduceCmp            0      0.00%     67.85% # Class of committed instruction
system.cpu.op_class_0::SimdAes                      0      0.00%     67.85% # Class of committed instruction
system.cpu.op_class_0::SimdAesMix                   0      0.00%     67.85% # Class of committed instruction
system.cpu.op_class_0::SimdSha1Hash                 0      0.00%     67.85% # Class of committed instruction
system.cpu.op_class_0::SimdSha1Hash2                0      0.00%     67.85% # Class of committed instruction
system.cpu.op_class_0::SimdSha256Hash               0      0.00%     67.85% # Class of committed instruction
system.cpu.op_class_0::SimdSha256Hash2              0      0.00%     67.85% # Class of committed instruction
system.cpu.op_class_0::SimdShaSigma2                0      0.00%     67.85% # Class of committed instruction
system.cpu.op_class_0::SimdShaSigma3                0      0.00%     67.85% # Class of committed instruction
system.cpu.op_class_0::SimdPredAlu                  0      0.00%     67.85% # Class of committed instruction
system.cpu.op_class_0::MemRead               20645992     18.87%     86.72% # Class of committed instruction
system.cpu.op_class_0::MemWrite              14534319     13.28%    100.00% # Class of committed instruction
system.cpu.op_class_0::FloatMemRead                 0      0.00%    100.00% # Class of committed instruction
system.cpu.op_class_0::FloatMemWrite                0      0.00%    100.00% # Class of committed instruction
system.cpu.op_class_0::IprAccess                    0      0.00%    100.00% # Class of committed instruction
system.cpu.op_class_0::InstPrefetch                 0      0.00%    100.00% # Class of committed instruction
system.cpu.op_class_0::total                109431277                       # Class of committed instruction
system.cpu.tickCycles                       114868864                       # Number of cycles that the object actually ticked
system.cpu.workload.numSyscalls                    87                       # Number of system calls
system.membus.snoop_filter.hit_multi_requests            0                       # Number of requests hitting in the snoop filter with multiple (>1) holders of the requested data.
system.membus.snoop_filter.hit_multi_snoops            0                       # Number of snoops hitting in the snoop filter with multiple (>1) holders of the requested data.
system.membus.snoop_filter.hit_single_requests         6673                       # Number of requests hitting in the snoop filter with a single holder of the requested data.
system.membus.snoop_filter.hit_single_snoops            0                       # Number of snoops hitting in the snoop filter with a single holder of the requested data.
system.membus.snoop_filter.tot_requests         46531                       # Total number of requests made to the snoop filter.
system.membus.snoop_filter.tot_snoops               0                       # Total number of snoops made to the snoop filter.
system.tol2bus.snoop_filter.hit_multi_requests           19                       # Number of requests hitting in the snoop filter with multiple (>1) holders of the requested data.
system.tol2bus.snoop_filter.hit_multi_snoops            4                       # Number of snoops hitting in the snoop filter with multiple (>1) holders of the requested data.
system.tol2bus.snoop_filter.hit_single_requests       585448                       # Number of requests hitting in the snoop filter with a single holder of the requested data.
system.tol2bus.snoop_filter.hit_single_snoops          415                       # Number of snoops hitting in the snoop filter with a single holder of the requested data.
system.tol2bus.snoop_filter.tot_requests      1172314                       # Total number of requests made to the snoop filter.
system.tol2bus.snoop_filter.tot_snoops            419                       # Total number of snoops made to the snoop filter.
system.membus.trans_dist::ReadResp               1048                       # Transaction distribution
system.membus.trans_dist::WritebackDirty         6499                       # Transaction distribution
system.membus.trans_dist::CleanEvict              174                       # Transaction distribution
system.membus.trans_dist::ReadExReq             38810                       # Transaction distribution
system.membus.trans_dist::ReadExResp            38810                       # Transaction distribution
system.membus.trans_dist::ReadSharedReq          1048                       # Transaction distribution
system.membus.pkt_count_system.l2.mem_side_port::system.mem_ctrls.port        86389                       # Packet count per connected requestor and responder (bytes)
system.membus.pkt_count::total                  86389                       # Packet count per connected requestor and responder (bytes)
system.membus.pkt_size_system.l2.mem_side_port::system.mem_ctrls.port      2966848                       # Cumulative packet size per connected requestor and responder (bytes)
system.membus.pkt_size::total                 2966848                       # Cumulative packet size per connected requestor and responder (bytes)
system.membus.snoops                                0                       # Total snoops (count)
system.membus.snoopTraffic                          0                       # Total snoop traffic (bytes)
system.membus.snoop_fanout::samples             39858                       # Request fanout histogram
system.membus.snoop_fanout::mean                    0                       # Request fanout histogram
system.membus.snoop_fanout::stdev                   0                       # Request fanout histogram
system.membus.snoop_fanout::underflows              0      0.00%      0.00% # Request fanout histogram
system.membus.snoop_fanout::0                   39858    100.00%    100.00% # Request fanout histogram
system.membus.snoop_fanout::1                       0      0.00%    100.00% # Request fanout histogram
system.membus.snoop_fanout::overflows               0      0.00%    100.00% # Request fanout histogram
system.membus.snoop_fanout::min_value               0                       # Request fanout histogram
system.membus.snoop_fanout::max_value               0                       # Request fanout histogram
system.membus.snoop_fanout::total               39858                       # Request fanout histogram
system.membus.reqLayer0.occupancy            79597500                       # Layer occupancy (ticks)
system.membus.reqLayer0.utilization               0.1                       # Layer utilization (%)
system.membus.respLayer1.occupancy          218075214                       # Layer occupancy (ticks)
system.membus.respLayer1.utilization              0.3                       # Layer utilization (%)
system.membus.power_state.pwrStateResidencyTicks::UNDEFINED  62695331500                       # Cumulative time (in ticks) in various power states
system.tol2bus.trans_dist::ReadResp            548060                       # Transaction distribution
system.tol2bus.trans_dist::WritebackDirty        55253                       # Transaction distribution
system.tol2bus.trans_dist::WritebackClean       534720                       # Transaction distribution
system.tol2bus.trans_dist::CleanEvict            2563                       # Transaction distribution
system.tol2bus.trans_dist::ReadExReq            38810                       # Transaction distribution
system.tol2bus.trans_dist::ReadExResp           38810                       # Transaction distribution
system.tol2bus.trans_dist::ReadCleanReq        535122                       # Transaction distribution
system.tol2bus.trans_dist::ReadSharedReq        12938                       # Transaction distribution
system.tol2bus.pkt_count_system.cpu.icache.mem_side_port::system.l2.cpu_side_port      1604964                       # Packet count per connected requestor and responder (bytes)
system.tol2bus.pkt_count_system.cpu.dcache.mem_side_port::system.l2.cpu_side_port       154220                       # Packet count per connected requestor and responder (bytes)
system.tol2bus.pkt_count::total               1759184                       # Packet count per connected requestor and responder (bytes)
system.tol2bus.pkt_size_system.cpu.icache.mem_side_port::system.l2.cpu_side_port     68469888                       # Cumulative packet size per connected requestor and responder (bytes)
system.tol2bus.pkt_size_system.cpu.dcache.mem_side_port::system.l2.cpu_side_port      6432128                       # Cumulative packet size per connected requestor and responder (bytes)
system.tol2bus.pkt_size::total               74902016                       # Cumulative packet size per connected requestor and responder (bytes)
system.tol2bus.snoops                            7092                       # Total snoops (count)
system.tol2bus.snoopTraffic                    415936                       # Total snoop traffic (bytes)
system.tol2bus.snoop_fanout::samples           593962                       # Request fanout histogram
system.tol2bus.snoop_fanout::mean            0.000751                       # Request fanout histogram
system.tol2bus.snoop_fanout::stdev           0.027637                       # Request fanout histogram
system.tol2bus.snoop_fanout::underflows             0      0.00%      0.00% # Request fanout histogram
system.tol2bus.snoop_fanout::0                 593520     99.93%     99.93% # Request fanout histogram
system.tol2bus.snoop_fanout::1                    438      0.07%    100.00% # Request fanout histogram
system.tol2bus.snoop_fanout::2                      4      0.00%    100.00% # Request fanout histogram
system.tol2bus.snoop_fanout::overflows              0      0.00%    100.00% # Request fanout histogram
system.tol2bus.snoop_fanout::min_value              0                       # Request fanout histogram
system.tol2bus.snoop_fanout::max_value              2                       # Request fanout histogram
system.tol2bus.snoop_fanout::total             593962                       # Request fanout histogram
system.tol2bus.reqLayer0.occupancy         1169631000                       # Layer occupancy (ticks)
system.tol2bus.reqLayer0.utilization              1.9                       # Layer utilization (%)
system.tol2bus.respLayer1.occupancy          77624495                       # Layer occupancy (ticks)
system.tol2bus.respLayer1.utilization             0.1                       # Layer utilization (%)
system.tol2bus.respLayer0.occupancy         802683499                       # Layer occupancy (ticks)
system.tol2bus.respLayer0.utilization             1.3                       # Layer utilization (%)
system.tol2bus.power_state.pwrStateResidencyTicks::UNDEFINED  62695331500                       # Cumulative time (in ticks) in various power states
system.voltage_domain.voltage                       1                       # Voltage in Volts
system.clk_domain.clock                          1000                       # Clock period in ticks
system.l2.demand_hits::.cpu.inst               534599                       # number of demand (read+write) hits
system.l2.demand_hits::.cpu.data                12407                       # number of demand (read+write) hits
system.l2.demand_hits::total                   547006                       # number of demand (read+write) hits
system.l2.overall_hits::.cpu.inst              534599                       # number of overall hits
system.l2.overall_hits::.cpu.data               12407                       # number of overall hits
system.l2.overall_hits::total                  547006                       # number of overall hits
system.l2.demand_misses::.cpu.inst                523                       # number of demand (read+write) misses
system.l2.demand_misses::.cpu.data              39341                       # number of demand (read+write) misses
system.l2.demand_misses::total                  39864                       # number of demand (read+write) misses
system.l2.overall_misses::.cpu.inst               523                       # number of overall misses
system.l2.overall_misses::.cpu.data             39341                       # number of overall misses
system.l2.overall_misses::total                 39864                       # number of overall misses
system.l2.demand_miss_latency::.cpu.inst     38860500                       # number of demand (read+write) miss cycles
system.l2.demand_miss_latency::.cpu.data   3205778500                       # number of demand (read+write) miss cycles
system.l2.demand_miss_latency::total       3244639000                       # number of demand (read+write) miss cycles
system.l2.overall_miss_latency::.cpu.inst     38860500                       # number of overall miss cycles
system.l2.overall_miss_latency::.cpu.data   3205778500                       # number of overall miss cycles
system.l2.overall_miss_latency::total      3244639000                       # number of overall miss cycles
system.l2.demand_accesses::.cpu.inst           535122                       # number of demand (read+write) accesses
system.l2.demand_accesses::.cpu.data            51748                       # number of demand (read+write) accesses
system.l2.demand_accesses::total               586870                       # number of demand (read+write) accesses
system.l2.overall_accesses::.cpu.inst          535122                       # number of overall (read+write) accesses
system.l2.overall_accesses::.cpu.data           51748                       # number of overall (read+write) accesses
system.l2.overall_accesses::total              586870                       # number of overall (read+write) accesses
system.l2.demand_miss_rate::.cpu.inst        0.000977                       # miss rate for demand accesses
system.l2.demand_miss_rate::.cpu.data        0.760242                       # miss rate for demand accesses
system.l2.demand_miss_rate::total            0.067926                       # miss rate for demand accesses
system.l2.overall_miss_rate::.cpu.inst       0.000977                       # miss rate for overall accesses
system.l2.overall_miss_rate::.cpu.data       0.760242                       # miss rate for overall accesses
system.l2.overall_miss_rate::total           0.067926                       # miss rate for overall accesses
system.l2.demand_avg_miss_latency::.cpu.inst 74303.059273                       # average overall miss latency
system.l2.demand_avg_miss_latency::.cpu.data 81486.960169                       # average overall miss latency
system.l2.demand_avg_miss_latency::total 81392.710215                       # average overall miss latency
system.l2.overall_avg_miss_latency::.cpu.inst 74303.059273                       # average overall miss latency
system.l2.overall_avg_miss_latency::.cpu.data 81486.960169                       # average overall miss latency
system.l2.overall_avg_miss_latency::total 81392.710215                       # average overall miss latency
system.l2.blocked_cycles::no_mshrs                  0                       # number of cycles access was blocked
system.l2.blocked_cycles::no_targets                0                       # number of cycles access was blocked
system.l2.blocked::no_mshrs                         0                       # number of cycles access was blocked
system.l2.blocked::no_targets                       0                       # number of cycles access was blocked
system.l2.avg_blocked_cycles::no_mshrs            nan                       # average number of cycles each access was blocked
system.l2.avg_blocked_cycles::no_targets          nan                       # average number of cycles each access was blocked
system.l2.writebacks::.writebacks                6499                       # number of writebacks
system.l2.writebacks::total                      6499                       # number of writebacks
system.l2.demand_mshr_hits::.cpu.inst               1                       # number of demand (read+write) MSHR hits
system.l2.demand_mshr_hits::.cpu.data               5                       # number of demand (read+write) MSHR hits
system.l2.demand_mshr_hits::total                   6                       # number of demand (read+write) MSHR hits
system.l2.overall_mshr_hits::.cpu.inst              1                       # number of overall MSHR hits
system.l2.overall_mshr_hits::.cpu.data              5                       # number of overall MSHR hits
system.l2.overall_mshr_hits::total                  6                       # number of overall MSHR hits
system.l2.demand_mshr_misses::.cpu.inst           522                       # number of demand (read+write) MSHR misses
system.l2.demand_mshr_misses::.cpu.data         39336                       # number of demand (read+write) MSHR misses
system.l2.demand_mshr_misses::total             39858                       # number of demand (read+write) MSHR misses
system.l2.overall_mshr_misses::.cpu.inst          522                       # number of overall MSHR misses
system.l2.overall_mshr_misses::.cpu.data        39336                       # number of overall MSHR misses
system.l2.overall_mshr_misses::total            39858                       # number of overall MSHR misses
system.l2.demand_mshr_miss_latency::.cpu.inst     33577000                       # number of demand (read+write) MSHR miss cycles
system.l2.demand_mshr_miss_latency::.cpu.data   2812084000                       # number of demand (read+write) MSHR miss cycles
system.l2.demand_mshr_miss_latency::total   2845661000                       # number of demand (read+write) MSHR miss cycles
system.l2.overall_mshr_miss_latency::.cpu.inst     33577000                       # number of overall MSHR miss cycles
system.l2.overall_mshr_miss_latency::.cpu.data   2812084000                       # number of overall MSHR miss cycles
system.l2.overall_mshr_miss_latency::total   2845661000                       # number of overall MSHR miss cycles
system.l2.demand_mshr_miss_rate::.cpu.inst     0.000975                       # mshr miss rate for demand accesses
system.l2.demand_mshr_miss_rate::.cpu.data     0.760145                       # mshr miss rate for demand accesses
system.l2.demand_mshr_miss_rate::total       0.067916                       # mshr miss rate for demand accesses
system.l2.overall_mshr_miss_rate::.cpu.inst     0.000975                       # mshr miss rate for overall accesses
system.l2.overall_mshr_miss_rate::.cpu.data     0.760145                       # mshr miss rate for overall accesses
system.l2.overall_mshr_miss_rate::total      0.067916                       # mshr miss rate for overall accesses
system.l2.demand_avg_mshr_miss_latency::.cpu.inst 64323.754789                       # average overall mshr miss latency
system.l2.demand_avg_mshr_miss_latency::.cpu.data 71488.814318                       # average overall mshr miss latency
system.l2.demand_avg_mshr_miss_latency::total 71394.977169                       # average overall mshr miss latency
system.l2.overall_avg_mshr_miss_latency::.cpu.inst 64323.754789                       # average overall mshr miss latency
system.l2.overall_avg_mshr_miss_latency::.cpu.data 71488.814318                       # average overall mshr miss latency
system.l2.overall_avg_mshr_miss_latency::total 71394.977169                       # average overall mshr miss latency
system.l2.replacements                           7092                       # number of replacements
system.l2.WritebackDirty_hits::.writebacks        48754                       # number of WritebackDirty hits
system.l2.WritebackDirty_hits::total            48754                       # number of WritebackDirty hits
system.l2.WritebackDirty_accesses::.writebacks        48754                       # number of WritebackDirty accesses(hits+misses)
system.l2.WritebackDirty_accesses::total        48754                       # number of WritebackDirty accesses(hits+misses)
system.l2.WritebackClean_hits::.writebacks       534713                       # number of WritebackClean hits
system.l2.WritebackClean_hits::total           534713                       # number of WritebackClean hits
system.l2.WritebackClean_accesses::.writebacks       534713                       # number of WritebackClean accesses(hits+misses)
system.l2.WritebackClean_accesses::total       534713                       # number of WritebackClean accesses(hits+misses)
system.l2.ReadExReq_misses::.cpu.data           38810                       # number of ReadExReq misses
system.l2.ReadExReq_misses::total               38810                       # number of ReadExReq misses
system.l2.ReadExReq_miss_latency::.cpu.data   3159843000                       # number of ReadExReq miss cycles
system.l2.ReadExReq_miss_latency::total    3159843000                       # number of ReadExReq miss cycles
system.l2.ReadExReq_accesses::.cpu.data         38810                       # number of ReadExReq accesses(hits+misses)
system.l2.ReadExReq_accesses::total             38810                       # number of ReadExReq accesses(hits+misses)
system.l2.ReadExReq_miss_rate::.cpu.data            1                       # miss rate for ReadExReq accesses
system.l2.ReadExReq_miss_rate::total                1                       # miss rate for ReadExReq accesses
system.l2.ReadExReq_avg_miss_latency::.cpu.data 81418.268488                       # average ReadExReq miss latency
system.l2.ReadExReq_avg_miss_latency::total 81418.268488                       # average ReadExReq miss latency
system.l2.ReadExReq_mshr_misses::.cpu.data        38810                       # number of ReadExReq MSHR misses
system.l2.ReadExReq_mshr_misses::total          38810                       # number of ReadExReq MSHR misses
system.l2.ReadExReq_mshr_miss_latency::.cpu.data   2771743000                       # number of ReadExReq MSHR miss cycles
system.l2.ReadExReq_mshr_miss_latency::total   2771743000                       # number of ReadExReq MSHR miss cycles
system.l2.ReadExReq_mshr_miss_rate::.cpu.data            1                       # mshr miss rate for ReadExReq accesses
system.l2.ReadExReq_mshr_miss_rate::total            1                       # mshr miss rate for ReadExReq accesses
system.l2.ReadExReq_avg_mshr_miss_latency::.cpu.data 71418.268488                       # average ReadExReq mshr miss latency
system.l2.ReadExReq_avg_mshr_miss_latency::total 71418.268488                       # average ReadExReq mshr miss latency
system.l2.ReadCleanReq_hits::.cpu.inst         534599                       # number of ReadCleanReq hits
system.l2.ReadCleanReq_hits::total             534599                       # number of ReadCleanReq hits
system.l2.ReadCleanReq_misses::.cpu.inst          523                       # number of ReadCleanReq misses
system.l2.ReadCleanReq_misses::total              523                       # number of ReadCleanReq misses
system.l2.ReadCleanReq_miss_latency::.cpu.inst     38860500                       # number of ReadCleanReq miss cycles
system.l2.ReadCleanReq_miss_latency::total     38860500                       # number of ReadCleanReq miss cycles
system.l2.ReadCleanReq_accesses::.cpu.inst       535122                       # number of ReadCleanReq accesses(hits+misses)
system.l2.ReadCleanReq_accesses::total         535122                       # number of ReadCleanReq accesses(hits+misses)
system.l2.ReadCleanReq_miss_rate::.cpu.inst     0.000977                       # miss rate for ReadCleanReq accesses
system.l2.ReadCleanReq_miss_rate::total      0.000977                       # miss rate for ReadCleanReq accesses
system.l2.ReadCleanReq_avg_miss_latency::.cpu.inst 74303.059273                       # average ReadCleanReq miss latency
system.l2.ReadCleanReq_avg_miss_latency::total 74303.059273                       # average ReadCleanReq miss latency
system.l2.ReadCleanReq_mshr_hits::.cpu.inst            1                       # number of ReadCleanReq MSHR hits
system.l2.ReadCleanReq_mshr_hits::total             1                       # number of ReadCleanReq MSHR hits
system.l2.ReadCleanReq_mshr_misses::.cpu.inst          522                       # number of ReadCleanReq MSHR misses
system.l2.ReadCleanReq_mshr_misses::total          522                       # number of ReadCleanReq MSHR misses
system.l2.ReadCleanReq_mshr_miss_latency::.cpu.inst     33577000                       # number of ReadCleanReq MSHR miss cycles
system.l2.ReadCleanReq_mshr_miss_latency::total     33577000                       # number of ReadCleanReq MSHR miss cycles
system.l2.ReadCleanReq_mshr_miss_rate::.cpu.inst     0.000975                       # mshr miss rate for ReadCleanReq accesses
system.l2.ReadCleanReq_mshr_miss_rate::total     0.000975                       # mshr miss rate for ReadCleanReq accesses
system.l2.ReadCleanReq_avg_mshr_miss_latency::.cpu.inst 64323.754789                       # average ReadCleanReq mshr miss latency
system.l2.ReadCleanReq_avg_mshr_miss_latency::total 64323.754789                       # average ReadCleanReq mshr miss latency
system.l2.ReadSharedReq_hits::.cpu.data         12407                       # number of ReadSharedReq hits
system.l2.ReadSharedReq_hits::total             12407                       # number of ReadSharedReq hits
system.l2.ReadSharedReq_misses::.cpu.data          531                       # number of ReadSharedReq misses
system.l2.ReadSharedReq_misses::total             531                       # number of ReadSharedReq misses
system.l2.ReadSharedReq_miss_latency::.cpu.data     45935500                       # number of ReadSharedReq miss cycles
system.l2.ReadSharedReq_miss_latency::total     45935500                       # number of ReadSharedReq miss cycles
system.l2.ReadSharedReq_accesses::.cpu.data        12938                       # number of ReadSharedReq accesses(hits+misses)
system.l2.ReadSharedReq_accesses::total         12938                       # number of ReadSharedReq accesses(hits+misses)
system.l2.ReadSharedReq_miss_rate::.cpu.data     0.041042                       # miss rate for ReadSharedReq accesses
system.l2.ReadSharedReq_miss_rate::total     0.041042                       # miss rate for ReadSharedReq accesses
system.l2.ReadSharedReq_avg_miss_latency::.cpu.data 86507.532957                       # average ReadSharedReq miss latency
system.l2.ReadSharedReq_avg_miss_latency::total 86507.532957                       # average ReadSharedReq miss latency
system.l2.ReadSharedReq_mshr_hits::.cpu.data            5                       # number of ReadSharedReq MSHR hits
system.l2.ReadSharedReq_mshr_hits::total            5                       # number of ReadSharedReq MSHR hits
system.l2.ReadSharedReq_mshr_misses::.cpu.data          526                       # number of ReadSharedReq MSHR misses
system.l2.ReadSharedReq_mshr_misses::total          526                       # number of ReadSharedReq MSHR misses
system.l2.ReadSharedReq_mshr_miss_latency::.cpu.data     40341000                       # number of ReadSharedReq MSHR miss cycles
system.l2.ReadSharedReq_mshr_miss_latency::total     40341000                       # number of ReadSharedReq MSHR miss cycles
system.l2.ReadSharedReq_mshr_miss_rate::.cpu.data     0.040655                       # mshr miss rate for ReadSharedReq accesses
system.l2.ReadSharedReq_mshr_miss_rate::total     0.040655                       # mshr miss rate for ReadSharedReq accesses
system.l2.ReadSharedReq_avg_mshr_miss_latency::.cpu.data 76693.916350                       # average ReadSharedReq mshr miss latency
system.l2.ReadSharedReq_avg_mshr_miss_latency::total 76693.916350                       # average ReadSharedReq mshr miss latency
system.l2.power_state.pwrStateResidencyTicks::UNDEFINED  62695331500                       # Cumulative time (in ticks) in various power states
system.l2.tags.tagsinuse                 26274.849311                       # Cycle average of tags in use
system.l2.tags.total_refs                     1172289                       # Total number of references to valid blocks.
system.l2.tags.sampled_refs                     39860                       # Sample count of references to valid blocks.
system.l2.tags.avg_refs                     29.410161                       # Average number of references to valid blocks.
system.l2.tags.warmup_cycle                     76000                       # Cycle when the warmup percentage was hit.
system.l2.tags.occ_blocks::.writebacks       0.656920                       # Average occupied blocks per requestor
system.l2.tags.occ_blocks::.cpu.inst       339.246985                       # Average occupied blocks per requestor
system.l2.tags.occ_blocks::.cpu.data     25934.945406                       # Average occupied blocks per requestor
system.l2.tags.occ_percent::.writebacks      0.000020                       # Average percentage of cache occupancy
system.l2.tags.occ_percent::.cpu.inst        0.010353                       # Average percentage of cache occupancy
system.l2.tags.occ_percent::.cpu.data        0.791472                       # Average percentage of cache occupancy
system.l2.tags.occ_percent::total            0.801845                       # Average percentage of cache occupancy
system.l2.tags.occ_task_id_blocks::1024         32768                       # Occupied blocks per task id
system.l2.tags.age_task_id_blocks_1024::0            3                       # Occupied blocks per task id
system.l2.tags.age_task_id_blocks_1024::1           31                       # Occupied blocks per task id
system.l2.tags.age_task_id_blocks_1024::2          382                       # Occupied blocks per task id
system.l2.tags.age_task_id_blocks_1024::3         3398                       # Occupied blocks per task id
system.l2.tags.age_task_id_blocks_1024::4        28954                       # Occupied blocks per task id
system.l2.tags.occ_task_id_percent::1024            1                       # Percentage of cache occupancy per task id
system.l2.tags.tag_accesses                   9418220                       # Number of tag accesses
system.l2.tags.data_accesses                  9418220                       # Number of data accesses
system.l2.tags.power_state.pwrStateResidencyTicks::UNDEFINED  62695331500                       # Cumulative time (in ticks) in various power states
system.cpu_voltage_domain.voltage                   1                       # Voltage in Volts
system.mem_ctrls.avgPriority_.writebacks::samples      6499.00                       # Average QoS priority value for accepted requests
system.mem_ctrls.avgPriority_.cpu.inst::samples       522.00                       # Average QoS priority value for accepted requests
system.mem_ctrls.avgPriority_.cpu.data::samples     39331.00                       # Average QoS priority value for accepted requests
system.mem_ctrls.priorityMinLatency      0.000000017492                       # per QoS priority minimum request to response latency (s)
system.mem_ctrls.priorityMaxLatency      0.023168635480                       # per QoS priority maximum request to response latency (s)
system.mem_ctrls.numReadWriteTurnArounds          358                       # Number of turnarounds from READ to WRITE
system.mem_ctrls.numWriteReadTurnArounds          358                       # Number of turnarounds from WRITE to READ
system.mem_ctrls.numStayReadState              102283                       # Number of times bus staying in READ state
system.mem_ctrls.numStayWriteState               6105                       # Number of times bus staying in WRITE state
system.mem_ctrls.readReqs                       39858                       # Number of read requests accepted
system.mem_ctrls.writeReqs                       6499                       # Number of write requests accepted
system.mem_ctrls.readBursts                     39858                       # Number of controller read bursts, including those serviced by the write queue
system.mem_ctrls.writeBursts                     6499                       # Number of controller write bursts, including those merged in the write queue
system.mem_ctrls.servicedByWrQ                      5                       # Number of controller read bursts serviced by the write queue
system.mem_ctrls.mergedWrBursts                     0                       # Number of controller write bursts merged with an existing one
system.mem_ctrls.neitherReadNorWriteReqs            0                       # Number of requests that are neither read nor write
system.mem_ctrls.avgRdQLen                       1.00                       # Average read queue length when enqueuing
system.mem_ctrls.avgWrQLen                      19.28                       # Average write queue length when enqueuing
system.mem_ctrls.numRdRetry                         0                       # Number of times read queue was full causing retry
system.mem_ctrls.numWrRetry                         0                       # Number of times write queue was full causing retry
system.mem_ctrls.readPktSize::0                     0                       # Read request sizes (log2)
system.mem_ctrls.readPktSize::1                     0                       # Read request sizes (log2)
system.mem_ctrls.readPktSize::2                     0                       # Read request sizes (log2)
system.mem_ctrls.readPktSize::3                     0                       # Read request sizes (log2)
system.mem_ctrls.readPktSize::4                     0                       # Read request sizes (log2)
system.mem_ctrls.readPktSize::5                     0                       # Read request sizes (log2)
system.mem_ctrls.readPktSize::6                 39858                       # Read request sizes (log2)
system.mem_ctrls.writePktSize::0                    0                       # Write request sizes (log2)
system.mem_ctrls.writePktSize::1                    0                       # Write request sizes (log2)
system.mem_ctrls.writePktSize::2                    0                       # Write request sizes (log2)
system.mem_ctrls.writePktSize::3                    0                       # Write request sizes (log2)
system.mem_ctrls.writePktSize::4                    0                       # Write request sizes (log2)
system.mem_ctrls.writePktSize::5                    0                       # Write request sizes (log2)
system.mem_ctrls.writePktSize::6                 6499                       # Write request sizes (log2)
system.mem_ctrls.rdQLenPdf::0                   39666                       # What read queue length does an incoming req see
system.mem_ctrls.rdQLenPdf::1                     181                       # What read queue length does an incoming req see
system.mem_ctrls.rdQLenPdf::2                       6                       # What read queue length does an incoming req see
system.mem_ctrls.rdQLenPdf::3                       0                       # What read queue length does an incoming req see
system.mem_ctrls.rdQLenPdf::4                       0                       # What read queue length does an incoming req see
system.mem_ctrls.rdQLenPdf::5                       0                       # What read queue length does an incoming req see
system.mem_ctrls.rdQLenPdf::6                       0                       # What read queue length does an incoming req see
system.mem_ctrls.rdQLenPdf::7                       0                       # What read queue length does an incoming req see
system.mem_ctrls.rdQLenPdf::8                       0                       # What read queue length does an incoming req see
system.mem_ctrls.rdQLenPdf::9                       0                       # What read queue length does an incoming req see
system.mem_ctrls.rdQLenPdf::10                      0                       # What read queue length does an incoming req see
system.mem_ctrls.rdQLenPdf::11                      0                       # What read queue length does an incoming req see
system.mem_ctrls.rdQLenPdf::12                      0                       # What read queue length does an incoming req see
system.mem_ctrls.rdQLenPdf::13                      0                       # What read queue length does an incoming req see
system.mem_ctrls.rdQLenPdf::14                      0                       # What read queue length does an incoming req see
system.mem_ctrls.rdQLenPdf::15                      0                       # What read queue length does an incoming req see
system.mem_ctrls.rdQLenPdf::16                      0                       # What read queue length does an incoming req see
system.mem_ctrls.rdQLenPdf::17                      0                       # What read queue length does an incoming req see
system.mem_ctrls.rdQLenPdf::18                      0                       # What read queue length does an incoming req see
system.mem_ctrls.rdQLenPdf::19                      0                       # What read queue length does an incoming req see
system.mem_ctrls.rdQLenPdf::20                      0                       # What read queue length does an incoming req see
system.mem_ctrls.rdQLenPdf::21                      0                       # What read queue length does an incoming req see
system.mem_ctrls.rdQLenPdf::22                      0                       # What read queue length does an incoming req see
system.mem_ctrls.rdQLenPdf::23                      0                       # What read queue length does an incoming req see
system.mem_ctrls.rdQLenPdf::24                      0                       # What read queue length does an incoming req see
system.mem_ctrls.rdQLenPdf::25                      0                       # What read queue length does an incoming req see
system.mem_ctrls.rdQLenPdf::26                      0                       # What read queue length does an incoming req see
system.mem_ctrls.rdQLenPdf::27                      0                       # What read queue length does an incoming req see
system.mem_ctrls.rdQLenPdf::28                      0                       # What read queue length does an incoming req see
system.mem_ctrls.rdQLenPdf::29                      0                       # What read queue length does an incoming req see
system.mem_ctrls.rdQLenPdf::30                      0                       # What read queue length does an incoming req see
system.mem_ctrls.rdQLenPdf::31                      0                       # What read queue length does an incoming req see
system.mem_ctrls.rdQLenPdf::32                      0                       # What read queue length does an incoming req see
system.mem_ctrls.rdQLenPdf::33                      0                       # What read queue length does an incoming req see
system.mem_ctrls.rdQLenPdf::34                      0                       # What read queue length does an incoming req see
system.mem_ctrls.rdQLenPdf::35                      0                       # What read queue length does an incoming req see
system.mem_ctrls.rdQLenPdf::36                      0                       # What read queue length does an incoming req see
system.mem_ctrls.rdQLenPdf::37                      0                       # What read queue length does an incoming req see
system.mem_ctrls.rdQLenPdf::38                      0                       # What read queue length does an incoming req see
system.mem_ctrls.rdQLenPdf::39                      0                       # What read queue length does an incoming req see
system.mem_ctrls.rdQLenPdf::40                      0                       # What read queue length does an incoming req see
system.mem_ctrls.rdQLenPdf::41                      0                       # What read queue length does an incoming req see
system.mem_ctrls.rdQLenPdf::42                      0                       # What read queue length does an incoming req see
system.mem_ctrls.rdQLenPdf::43                      0                       # What read queue length does an incoming req see
system.mem_ctrls.rdQLenPdf::44                      0                       # What read queue length does an incoming req see
system.mem_ctrls.rdQLenPdf::45                      0                       # What read queue length does an incoming req see
system.mem_ctrls.rdQLenPdf::46                      0                       # What read queue length does an incoming req see
system.mem_ctrls.rdQLenPdf::47                      0                       # What read queue length does an incoming req see
system.mem_ctrls.rdQLenPdf::48                      0                       # What read queue length does an incoming req see
system.mem_ctrls.rdQLenPdf::49                      0                       # What read queue length does an incoming req see
system.mem_ctrls.rdQLenPdf::50                      0                       # What read queue length does an incoming req see
system.mem_ctrls.rdQLenPdf::51                      0                       # What read queue length does an incoming req see
system.mem_ctrls.rdQLenPdf::52                      0                       # What read queue length does an incoming req see
system.mem_ctrls.rdQLenPdf::53                      0                       # What read queue length does an incoming req see
system.mem_ctrls.rdQLenPdf::54                      0                       # What read queue length does an incoming req see
system.mem_ctrls.rdQLenPdf::55                      0                       # What read queue length does an incoming req see
system.mem_ctrls.rdQLenPdf::56                      0                       # What read queue length does an incoming req see
system.mem_ctrls.rdQLenPdf::57                      0                       # What read queue length does an incoming req see
system.mem_ctrls.rdQLenPdf::58                      0                       # What read queue length does an incoming req see
system.mem_ctrls.rdQLenPdf::59                      0                       # What read queue length does an incoming req see
system.mem_ctrls.rdQLenPdf::60                      0                       # What read queue length does an incoming req see
system.mem_ctrls.rdQLenPdf::61                      0                       # What read queue length does an incoming req see
system.mem_ctrls.rdQLenPdf::62                      0                       # What read queue length does an incoming req see
system.mem_ctrls.rdQLenPdf::63                      0                       # What read queue length does an incoming req see
system.mem_ctrls.wrQLenPdf::0                       1                       # What write queue length does an incoming req see
system.mem_ctrls.wrQLenPdf::1                       1                       # What write queue length does an incoming req see
system.mem_ctrls.wrQLenPdf::2                       1                       # What write queue length does an incoming req see
system.mem_ctrls.wrQLenPdf::3                       1                       # What write queue length does an incoming req see
system.mem_ctrls.wrQLenPdf::4                       1                       # What write queue length does an incoming req see
system.mem_ctrls.wrQLenPdf::5                       1                       # What write queue length does an incoming req see
system.mem_ctrls.wrQLenPdf::6                       1                       # What write queue length does an incoming req see
system.mem_ctrls.wrQLenPdf::7                       1                       # What write queue length does an incoming req see
system.mem_ctrls.wrQLenPdf::8                       1                       # What write queue length does an incoming req see
system.mem_ctrls.wrQLenPdf::9                       1                       # What write queue length does an incoming req see
system.mem_ctrls.wrQLenPdf::10                      1                       # What write queue length does an incoming req see
system.mem_ctrls.wrQLenPdf::11                      1                       # What write queue length does an incoming req see
system.mem_ctrls.wrQLenPdf::12                      1                       # What write queue length does an incoming req see
system.mem_ctrls.wrQLenPdf::13                      1                       # What write queue length does an incoming req see
system.mem_ctrls.wrQLenPdf::14                      1                       # What write queue length does an incoming req see
system.mem_ctrls.wrQLenPdf::15                      1                       # What write queue length does an incoming req see
system.mem_ctrls.wrQLenPdf::16                      1                       # What write queue length does an incoming req see
system.mem_ctrls.wrQLenPdf::17                      1                       # What write queue length does an incoming req see
system.mem_ctrls.wrQLenPdf::18                      1                       # What write queue length does an incoming req see
system.mem_ctrls.wrQLenPdf::19                      1                       # What write queue length does an incoming req see
system.mem_ctrls.wrQLenPdf::20                      1                       # What write queue length does an incoming req see
system.mem_ctrls.wrQLenPdf::21                      1                       # What write queue length does an incoming req see
system.mem_ctrls.wrQLenPdf::22                      1                       # What write queue length does an incoming req see
system.mem_ctrls.wrQLenPdf::23                      1                       # What write queue length does an incoming req see
system.mem_ctrls.wrQLenPdf::24                      1                       # What write queue length does an incoming req see
system.mem_ctrls.wrQLenPdf::25                      1                       # What write queue length does an incoming req see
system.mem_ctrls.wrQLenPdf::26                      1                       # What write queue length does an incoming req see
system.mem_ctrls.wrQLenPdf::27                      1                       # What write queue length does an incoming req see
system.mem_ctrls.wrQLenPdf::28                      1                       # What write queue length does an incoming req see
system.mem_ctrls.wrQLenPdf::29                      1                       # What write queue length does an incoming req see
system.mem_ctrls.wrQLenPdf::30                      1                       # What write queue length does an incoming req see
system.mem_ctrls.wrQLenPdf::31                      1                       # What write queue length does an incoming req see
system.mem_ctrls.wrQLenPdf::32                      1                       # What write queue length does an incoming req see
system.mem_ctrls.wrQLenPdf::33                      1                       # What write queue length does an incoming req see
system.mem_ctrls.wrQLenPdf::34                      1                       # What write queue length does an incoming req see
system.mem_ctrls.wrQLenPdf::35                      1                       # What write queue length does an incoming req see
system.mem_ctrls.wrQLenPdf::36                      1                       # What write queue length does an incoming req see
system.mem_ctrls.wrQLenPdf::37                      1                       # What write queue length does an incoming req see
system.mem_ctrls.wrQLenPdf::38                      1                       # What write queue length does an incoming req see
system.mem_ctrls.wrQLenPdf::39                      1                       # What write queue length does an incoming req see
system.mem_ctrls.wrQLenPdf::40                      1                       # What write queue length does an incoming req see
system.mem_ctrls.wrQLenPdf::41                      1                       # What write queue length does an incoming req see
system.mem_ctrls.wrQLenPdf::42                      1                       # What write queue length does an incoming req see
system.mem_ctrls.wrQLenPdf::43                      1                       # What write queue length does an incoming req see
system.mem_ctrls.wrQLenPdf::44                      1                       # What write queue length does an incoming req see
system.mem_ctrls.wrQLenPdf::45                      1                       # What write queue length does an incoming req see
system.mem_ctrls.wrQLenPdf::46                      1                       # What write queue length does an incoming req see
system.mem_ctrls.wrQLenPdf::47                    358                       # What write queue length does an incoming req see
system.mem_ctrls.wrQLenPdf::48                    358                       # What write queue length does an incoming req see
system.mem_ctrls.wrQLenPdf::49                    357                       # What write queue length does an incoming req see
system.mem_ctrls.wrQLenPdf::50                    358                       # What write queue length does an incoming req see
system.mem_ctrls.wrQLenPdf::51                    358                       # What write queue length does an incoming req see
system.mem_ctrls.wrQLenPdf::52                    358                       # What write queue length does an incoming req see
system.mem_ctrls.wrQLenPdf::53                    359                       # What write queue length does an incoming req see
system.mem_ctrls.wrQLenPdf::54                    360                       # What write queue length does an incoming req see
system.mem_ctrls.wrQLenPdf::55                    359                       # What write queue length does an incoming req see
system.mem_ctrls.wrQLenPdf::56                    359                       # What write queue length does an incoming req see
system.mem_ctrls.wrQLenPdf::57                    360                       # What write queue length does an incoming req see
system.mem_ctrls.wrQLenPdf::58                    358                       # What write queue length does an incoming req see
system.mem_ctrls.wrQLenPdf::59                    359                       # What write queue length does an incoming req see
system.mem_ctrls.wrQLenPdf::60                    359                       # What write queue length does an incoming req see
system.mem_ctrls.wrQLenPdf::61                    358                       # What write queue length does an incoming req see
system.mem_ctrls.wrQLenPdf::62                    358                       # What write queue length does an incoming req see
system.mem_ctrls.wrQLenPdf::63                    358                       # What write queue length does an incoming req see
system.mem_ctrls.wrQLenPdf::64                    358                       # What write queue length does an incoming req see
system.mem_ctrls.wrQLenPdf::65                      0                       # What write queue length does an incoming req see
system.mem_ctrls.wrQLenPdf::66                      0                       # What write queue length does an incoming req see
system.mem_ctrls.wrQLenPdf::67                      0                       # What write queue length does an incoming req see
system.mem_ctrls.wrQLenPdf::68                      0                       # What write queue length does an incoming req see
system.mem_ctrls.wrQLenPdf::69                      0                       # What write queue length does an incoming req see
system.mem_ctrls.wrQLenPdf::70                      0                       # What write queue length does an incoming req see
system.mem_ctrls.wrQLenPdf::71                      0                       # What write queue length does an incoming req see
system.mem_ctrls.wrQLenPdf::72                      0                       # What write queue length does an incoming req see
system.mem_ctrls.wrQLenPdf::73                      0                       # What write queue length does an incoming req see
system.mem_ctrls.wrQLenPdf::74                      0                       # What write queue length does an incoming req see
system.mem_ctrls.wrQLenPdf::75                      0                       # What write queue length does an incoming req see
system.mem_ctrls.wrQLenPdf::76                      0                       # What write queue length does an incoming req see
system.mem_ctrls.wrQLenPdf::77                      0                       # What write queue length does an incoming req see
system.mem_ctrls.wrQLenPdf::78                      0                       # What write queue length does an incoming req see
system.mem_ctrls.wrQLenPdf::79                      0                       # What write queue length does an incoming req see
system.mem_ctrls.wrQLenPdf::80                      0                       # What write queue length does an incoming req see
system.mem_ctrls.wrQLenPdf::81                      0                       # What write queue length does an incoming req see
system.mem_ctrls.wrQLenPdf::82                      0                       # What write queue length does an incoming req see
system.mem_ctrls.wrQLenPdf::83                      0                       # What write queue length does an incoming req see
system.mem_ctrls.wrQLenPdf::84                      0                       # What write queue length does an incoming req see
system.mem_ctrls.wrQLenPdf::85                      0                       # What write queue length does an incoming req see
system.mem_ctrls.wrQLenPdf::86                      0                       # What write queue length does an incoming req see
system.mem_ctrls.wrQLenPdf::87                      0                       # What write queue length does an incoming req see
system.mem_ctrls.wrQLenPdf::88                      0                       # What write queue length does an incoming req see
system.mem_ctrls.wrQLenPdf::89                      0                       # What write queue length does an incoming req see
system.mem_ctrls.wrQLenPdf::90                      0                       # What write queue length does an incoming req see
system.mem_ctrls.wrQLenPdf::91                      0                       # What write queue length does an incoming req see
system.mem_ctrls.wrQLenPdf::92                      0                       # What write queue length does an incoming req see
system.mem_ctrls.wrQLenPdf::93                      0                       # What write queue length does an incoming req see
system.mem_ctrls.wrQLenPdf::94                      0                       # What write queue length does an incoming req see
system.mem_ctrls.wrQLenPdf::95                      0                       # What write queue length does an incoming req see
system.mem_ctrls.wrQLenPdf::96                      0                       # What write queue length does an incoming req see
system.mem_ctrls.wrQLenPdf::97                      0                       # What write queue length does an incoming req see
system.mem_ctrls.wrQLenPdf::98                      0                       # What write queue length does an incoming req see
system.mem_ctrls.wrQLenPdf::99                      0                       # What write queue length does an incoming req see
system.mem_ctrls.wrQLenPdf::100                     0                       # What write queue length does an incoming req see
system.mem_ctrls.wrQLenPdf::101                     0                       # What write queue length does an incoming req see
system.mem_ctrls.wrQLenPdf::102                     0                       # What write queue length does an incoming req see
system.mem_ctrls.wrQLenPdf::103                     0                       # What write queue length does an incoming req see
system.mem_ctrls.wrQLenPdf::104                     0                       # What write queue length does an incoming req see
system.mem_ctrls.wrQLenPdf::105                     0                       # What write queue length does an incoming req see
system.mem_ctrls.wrQLenPdf::106                     0                       # What write queue length does an incoming req see
system.mem_ctrls.wrQLenPdf::107                     0                       # What write queue length does an incoming req see
system.mem_ctrls.wrQLenPdf::108                     0                       # What write queue length does an incoming req see
system.mem_ctrls.wrQLenPdf::109                     0                       # What write queue length does an incoming req see
system.mem_ctrls.wrQLenPdf::110                     0                       # What write queue length does an incoming req see
system.mem_ctrls.wrQLenPdf::111                     0                       # What write queue length does an incoming req see
system.mem_ctrls.wrQLenPdf::112                     0                       # What write queue length does an incoming req see
system.mem_ctrls.wrQLenPdf::113                     0                       # What write queue length does an incoming req see
system.mem_ctrls.wrQLenPdf::114                     0                       # What write queue length does an incoming req see
system.mem_ctrls.wrQLenPdf::115                     0                       # What write queue length does an incoming req see
system.mem_ctrls.wrQLenPdf::116                     0                       # What write queue length does an incoming req see
system.mem_ctrls.wrQLenPdf::117                     0                       # What write queue length does an incoming req see
system.mem_ctrls.wrQLenPdf::118                     0                       # What write queue length does an incoming req see
system.mem_ctrls.wrQLenPdf::119                     0                       # What write queue length does an incoming req see
system.mem_ctrls.wrQLenPdf::120                     0                       # What write queue length does an incoming req see
system.mem_ctrls.wrQLenPdf::121                     0                       # What write queue length does an incoming req see
system.mem_ctrls.wrQLenPdf::122                     0                       # What write queue length does an incoming req see
system.mem_ctrls.wrQLenPdf::123                     0                       # What write queue length does an incoming req see
system.mem_ctrls.wrQLenPdf::124                     0                       # What write queue length does an incoming req see
system.mem_ctrls.wrQLenPdf::125                     0                       # What write queue length does an incoming req see
system.mem_ctrls.wrQLenPdf::126                     0                       # What write queue length does an incoming req see
system.mem_ctrls.wrQLenPdf::127                     0                       # What write queue length does an incoming req see
system.mem_ctrls.rdPerTurnAround::samples          358                       # Reads before turning the bus around for writes
system.mem_ctrls.rdPerTurnAround::mean     111.315642                       # Reads before turning the bus around for writes
system.mem_ctrls.rdPerTurnAround::gmean     18.936671                       # Reads before turning the bus around for writes
system.mem_ctrls.rdPerTurnAround::stdev   1732.142327                       # Reads before turning the bus around for writes
system.mem_ctrls.rdPerTurnAround::0-1023          357     99.72%     99.72% # Reads before turning the bus around for writes
system.mem_ctrls.rdPerTurnAround::32768-33791            1      0.28%    100.00% # Reads before turning the bus around for writes
system.mem_ctrls.rdPerTurnAround::total           358                       # Reads before turning the bus around for writes
system.mem_ctrls.wrPerTurnAround::samples          358                       # Writes before turning the bus around for reads
system.mem_ctrls.wrPerTurnAround::mean      18.016760                       # Writes before turning the bus around for reads
system.mem_ctrls.wrPerTurnAround::gmean     18.015833                       # Writes before turning the bus around for reads
system.mem_ctrls.wrPerTurnAround::stdev      0.182570                       # Writes before turning the bus around for reads
system.mem_ctrls.wrPerTurnAround::16                1      0.28%      0.28% # Writes before turning the bus around for reads
system.mem_ctrls.wrPerTurnAround::18              349     97.49%     97.77% # Writes before turning the bus around for reads
system.mem_ctrls.wrPerTurnAround::19                8      2.23%    100.00% # Writes before turning the bus around for reads
system.mem_ctrls.wrPerTurnAround::total           358                       # Writes before turning the bus around for reads
system.mem_ctrls.bytesReadWrQ                     320                       # Total number of bytes read from write queue
system.mem_ctrls.bytesReadSys                 2550912                       # Total read bytes from the system interface side
system.mem_ctrls.bytesWrittenSys               415936                       # Total written bytes from the system interface side
system.mem_ctrls.avgRdBWSys                     40.69                       # Average system read bandwidth in MiByte/s
system.mem_ctrls.avgWrBWSys                      6.63                       # Average system write bandwidth in MiByte/s
system.mem_ctrls.totGap                   62692776000                       # Total gap between requests
system.mem_ctrls.avgGap                    1352390.71                       # Average gap between requests
system.mem_ctrls.requestorReadBytes::.cpu.inst        33408                       # Per-requestor bytes read from memory
system.mem_ctrls.requestorReadBytes::.cpu.data      2517184                       # Per-requestor bytes read from memory
system.mem_ctrls.requestorWriteBytes::.writebacks       412800                       # Per-requestor bytes write to memory
system.mem_ctrls.requestorReadRate::.cpu.inst 532862.642252716934                       # Per-requestor bytes read from memory rate (Bytes/sec)
system.mem_ctrls.requestorReadRate::.cpu.data 40149464.717321090400                       # Per-requestor bytes read from memory rate (Bytes/sec)
system.mem_ctrls.requestorWriteRate::.writebacks 6584222.303697364405                       # Per-requestor bytes write to memory rate (Bytes/sec)
system.mem_ctrls.requestorReadAccesses::.cpu.inst          522                       # Per-requestor read serviced memory accesses
system.mem_ctrls.requestorReadAccesses::.cpu.data        39336                       # Per-requestor read serviced memory accesses
system.mem_ctrls.requestorWriteAccesses::.writebacks         6499                       # Per-requestor write serviced memory accesses
system.mem_ctrls.requestorReadTotalLat::.cpu.inst     12115210                       # Per-requestor read total memory access latency
system.mem_ctrls.requestorReadTotalLat::.cpu.data   1193416862                       # Per-requestor read total memory access latency
system.mem_ctrls.requestorWriteTotalLat::.writebacks 1185856578968                       # Per-requestor write total memory access latency
system.mem_ctrls.requestorReadAvgLat::.cpu.inst     23209.21                       # Per-requestor read average memory access latency
system.mem_ctrls.requestorReadAvgLat::.cpu.data     30339.05                       # Per-requestor read average memory access latency
system.mem_ctrls.requestorWriteAvgLat::.writebacks 182467545.62                       # Per-requestor write average memory access latency
system.mem_ctrls.dram.bytes_read::.cpu.inst        33408                       # Number of bytes read from this memory
system.mem_ctrls.dram.bytes_read::.cpu.data      2517504                       # Number of bytes read from this memory
system.mem_ctrls.dram.bytes_read::total       2550912                       # Number of bytes read from this memory
system.mem_ctrls.dram.bytes_inst_read::.cpu.inst        33408                       # Number of instructions bytes read from this memory
system.mem_ctrls.dram.bytes_inst_read::total        33408                       # Number of instructions bytes read from this memory
system.mem_ctrls.dram.bytes_written::.writebacks       415936                       # Number of bytes written to this memory
system.mem_ctrls.dram.bytes_written::total       415936                       # Number of bytes written to this memory
system.mem_ctrls.dram.num_reads::.cpu.inst          522                       # Number of read requests responded to by this memory
system.mem_ctrls.dram.num_reads::.cpu.data        39336                       # Number of read requests responded to by this memory
system.mem_ctrls.dram.num_reads::total          39858                       # Number of read requests responded to by this memory
system.mem_ctrls.dram.num_writes::.writebacks         6499                       # Number of write requests responded to by this memory
system.mem_ctrls.dram.num_writes::total          6499                       # Number of write requests responded to by this memory
system.mem_ctrls.dram.bw_read::.cpu.inst       532863                       # Total read bandwidth from this memory (bytes/s)
system.mem_ctrls.dram.bw_read::.cpu.data     40154569                       # Total read bandwidth from this memory (bytes/s)
system.mem_ctrls.dram.bw_read::total         40687431                       # Total read bandwidth from this memory (bytes/s)
system.mem_ctrls.dram.bw_inst_read::.cpu.inst       532863                       # Instruction read bandwidth from this memory (bytes/s)
system.mem_ctrls.dram.bw_inst_read::total       532863                       # Instruction read bandwidth from this memory (bytes/s)
system.mem_ctrls.dram.bw_write::.writebacks      6634242                       # Write bandwidth from this memory (bytes/s)
system.mem_ctrls.dram.bw_write::total         6634242                       # Write bandwidth from this memory (bytes/s)
system.mem_ctrls.dram.bw_total::.writebacks      6634242                       # Total bandwidth to/from this memory (bytes/s)
system.mem_ctrls.dram.bw_total::.cpu.inst       532863                       # Total bandwidth to/from this memory (bytes/s)
system.mem_ctrls.dram.bw_total::.cpu.data     40154569                       # Total bandwidth to/from this memory (bytes/s)
system.mem_ctrls.dram.bw_total::total        47321673                       # Total bandwidth to/from this memory (bytes/s)
system.mem_ctrls.dram.readBursts                39853                       # Number of DRAM read bursts
system.mem_ctrls.dram.writeBursts                6450                       # Number of DRAM write bursts
system.mem_ctrls.dram.perBankRdBursts::0         1339                       # Per bank write bursts
system.mem_ctrls.dram.perBankRdBursts::1         1310                       # Per bank write bursts
system.mem_ctrls.dram.perBankRdBursts::2         1309                       # Per bank write bursts
system.mem_ctrls.dram.perBankRdBursts::3         1367                       # Per bank write bursts
system.mem_ctrls.dram.perBankRdBursts::4         1192                       # Per bank write bursts
system.mem_ctrls.dram.perBankRdBursts::5         1161                       # Per bank write bursts
system.mem_ctrls.dram.perBankRdBursts::6         1160                       # Per bank write bursts
system.mem_ctrls.dram.perBankRdBursts::7         1187                       # Per bank write bursts
system.mem_ctrls.dram.perBankRdBursts::8         1183                       # Per bank write bursts
system.mem_ctrls.dram.perBankRdBursts::9         1216                       # Per bank write bursts
system.mem_ctrls.dram.perBankRdBursts::10         1186                       # Per bank write bursts
system.mem_ctrls.dram.perBankRdBursts::11         1219                       # Per bank write bursts
system.mem_ctrls.dram.perBankRdBursts::12         1205                       # Per bank write bursts
system.mem_ctrls.dram.perBankRdBursts::13         1191                       # Per bank write bursts
system.mem_ctrls.dram.perBankRdBursts::14         1208                       # Per bank write bursts
system.mem_ctrls.dram.perBankRdBursts::15         1226                       # Per bank write bursts
system.mem_ctrls.dram.perBankRdBursts::16         1191                       # Per bank write bursts
system.mem_ctrls.dram.perBankRdBursts::17         1181                       # Per bank write bursts
system.mem_ctrls.dram.perBankRdBursts::18         1176                       # Per bank write bursts
system.mem_ctrls.dram.perBankRdBursts::19         1227                       # Per bank write bursts
system.mem_ctrls.dram.perBankRdBursts::20         1256                       # Per bank write bursts
system.mem_ctrls.dram.perBankRdBursts::21         1222                       # Per bank write bursts
system.mem_ctrls.dram.perBankRdBursts::22         1295                       # Per bank write bursts
system.mem_ctrls.dram.perBankRdBursts::23         1277                       # Per bank write bursts
system.mem_ctrls.dram.perBankRdBursts::24         1289                       # Per bank write bursts
system.mem_ctrls.dram.perBankRdBursts::25         1291                       # Per bank write bursts
system.mem_ctrls.dram.perBankRdBursts::26         1307                       # Per bank write bursts
system.mem_ctrls.dram.perBankRdBursts::27         1293                       # Per bank write bursts
system.mem_ctrls.dram.perBankRdBursts::28         1296                       # Per bank write bursts
system.mem_ctrls.dram.perBankRdBursts::29         1298                       # Per bank write bursts
system.mem_ctrls.dram.perBankRdBursts::30         1309                       # Per bank write bursts
system.mem_ctrls.dram.perBankRdBursts::31         1286                       # Per bank write bursts
system.mem_ctrls.dram.perBankWrBursts::0          276                       # Per bank write bursts
system.mem_ctrls.dram.perBankWrBursts::1          257                       # Per bank write bursts
system.mem_ctrls.dram.perBankWrBursts::2          269                       # Per bank write bursts
system.mem_ctrls.dram.perBankWrBursts::3          239                       # Per bank write bursts
system.mem_ctrls.dram.perBankWrBursts::4          143                       # Per bank write bursts
system.mem_ctrls.dram.perBankWrBursts::5          136                       # Per bank write bursts
system.mem_ctrls.dram.perBankWrBursts::6          136                       # Per bank write bursts
system.mem_ctrls.dram.perBankWrBursts::7          142                       # Per bank write bursts
system.mem_ctrls.dram.perBankWrBursts::8          132                       # Per bank write bursts
system.mem_ctrls.dram.perBankWrBursts::9          146                       # Per bank write bursts
system.mem_ctrls.dram.perBankWrBursts::10          132                       # Per bank write bursts
system.mem_ctrls.dram.perBankWrBursts::11          138                       # Per bank write bursts
system.mem_ctrls.dram.perBankWrBursts::12          140                       # Per bank write bursts
system.mem_ctrls.dram.perBankWrBursts::13          148                       # Per bank write bursts
system.mem_ctrls.dram.perBankWrBursts::14          132                       # Per bank write bursts
system.mem_ctrls.dram.perBankWrBursts::15          173                       # Per bank write bursts
system.mem_ctrls.dram.perBankWrBursts::16          162                       # Per bank write bursts
system.mem_ctrls.dram.perBankWrBursts::17          140                       # Per bank write bursts
system.mem_ctrls.dram.perBankWrBursts::18          150                       # Per bank write bursts
system.mem_ctrls.dram.perBankWrBursts::19          193                       # Per bank write bursts
system.mem_ctrls.dram.perBankWrBursts::20          218                       # Per bank write bursts
system.mem_ctrls.dram.perBankWrBursts::21          198                       # Per bank write bursts
system.mem_ctrls.dram.perBankWrBursts::22          271                       # Per bank write bursts
system.mem_ctrls.dram.perBankWrBursts::23          253                       # Per bank write bursts
system.mem_ctrls.dram.perBankWrBursts::24          265                       # Per bank write bursts
system.mem_ctrls.dram.perBankWrBursts::25          267                       # Per bank write bursts
system.mem_ctrls.dram.perBankWrBursts::26          272                       # Per bank write bursts
system.mem_ctrls.dram.perBankWrBursts::27          262                       # Per bank write bursts
system.mem_ctrls.dram.perBankWrBursts::28          265                       # Per bank write bursts
system.mem_ctrls.dram.perBankWrBursts::29          267                       # Per bank write bursts
system.mem_ctrls.dram.perBankWrBursts::30          264                       # Per bank write bursts
system.mem_ctrls.dram.perBankWrBursts::31          264                       # Per bank write bursts
[...]
system.cpu.dcache.ReadReq_misses::total         14859                       # number of ReadReq misses
system.cpu.dcache.ReadReq_miss_latency::.cpu.data    243986500                       # number of ReadReq miss cycles
system.cpu.dcache.ReadReq_miss_latency::total    243986500                       # number of ReadReq miss cycles
system.cpu.dcache.ReadReq_accesses::.cpu.data     21431847                       # number of ReadReq accesses(hits+misses)
system.cpu.dcache.ReadReq_accesses::total     21431847                       # number of ReadReq accesses(hits+misses)
system.cpu.dcache.ReadReq_miss_rate::.cpu.data     0.000693                       # miss rate for ReadReq accesses
system.cpu.dcache.ReadReq_miss_rate::total     0.000693                       # miss rate for ReadReq accesses
system.cpu.dcache.ReadReq_avg_miss_latency::.cpu.data 16420.115755                       # average ReadReq miss latency
system.cpu.dcache.ReadReq_avg_miss_latency::total 16420.115755                       # average ReadReq miss latency
system.cpu.dcache.ReadReq_mshr_hits::.cpu.data         1945                       # number of ReadReq MSHR hits
system.cpu.dcache.ReadReq_mshr_hits::total         1945                       # number of ReadReq MSHR hits
system.cpu.dcache.ReadReq_mshr_misses::.cpu.data        12914                       # number of ReadReq MSHR misses
system.cpu.dcache.ReadReq_mshr_misses::total        12914                       # number of ReadReq MSHR misses
system.cpu.dcache.ReadReq_mshr_miss_latency::.cpu.data    194509500                       # number of ReadReq MSHR miss cycles
system.cpu.dcache.ReadReq_mshr_miss_latency::total    194509500                       # number of ReadReq MSHR miss cycles
system.cpu.dcache.ReadReq_mshr_miss_rate::.cpu.data     0.000603                       # mshr miss rate for ReadReq accesses
system.cpu.dcache.ReadReq_mshr_miss_rate::total     0.000603                       # mshr miss rate for ReadReq accesses
system.cpu.dcache.ReadReq_avg_mshr_miss_latency::.cpu.data 15061.909556                       # average ReadReq mshr miss latency
system.cpu.dcache.ReadReq_avg_mshr_miss_latency::total 15061.909556                       # average ReadReq mshr miss latency
system.cpu.dcache.WriteReq_hits::.cpu.data     14198940                       # number of WriteReq hits
system.cpu.dcache.WriteReq_hits::total       14198940                       # number of WriteReq hits
system.cpu.dcache.WriteReq_misses::.cpu.data        55328                       # number of WriteReq misses
system.cpu.dcache.WriteReq_misses::total        55328                       # number of WriteReq misses
system.cpu.dcache.WriteReq_miss_latency::.cpu.data   4279345000                       # number of WriteReq miss cycles
system.cpu.dcache.WriteReq_miss_latency::total   4279345000                       # number of WriteReq miss cycles
system.cpu.dcache.WriteReq_accesses::.cpu.data     14254268                       # number of WriteReq accesses(hits+misses)
system.cpu.dcache.WriteReq_accesses::total     14254268                       # number of WriteReq accesses(hits+misses)
system.cpu.dcache.WriteReq_miss_rate::.cpu.data     0.003882                       # miss rate for WriteReq accesses
system.cpu.dcache.WriteReq_miss_rate::total     0.003882                       # miss rate for WriteReq accesses
system.cpu.dcache.WriteReq_avg_miss_latency::.cpu.data 77345.015182                       # average WriteReq miss latency
system.cpu.dcache.WriteReq_avg_miss_latency::total 77345.015182                       # average WriteReq miss latency
system.cpu.dcache.WriteReq_mshr_hits::.cpu.data        16518                       # number of WriteReq MSHR hits
system.cpu.dcache.WriteReq_mshr_hits::total        16518                       # number of WriteReq MSHR hits
system.cpu.dcache.WriteReq_mshr_misses::.cpu.data        38810                       # number of WriteReq MSHR misses
system.cpu.dcache.WriteReq_mshr_misses::total        38810                       # number of WriteReq MSHR misses
system.cpu.dcache.WriteReq_mshr_miss_latency::.cpu.data   3218059000                       # number of WriteReq MSHR miss cycles
system.cpu.dcache.WriteReq_mshr_miss_latency::total   3218059000                       # number of WriteReq MSHR miss cycles
system.cpu.dcache.WriteReq_mshr_miss_rate::.cpu.data     0.002723                       # mshr miss rate for WriteReq accesses
system.cpu.dcache.WriteReq_mshr_miss_rate::total     0.002723                       # mshr miss rate for WriteReq accesses
system.cpu.dcache.WriteReq_avg_mshr_miss_latency::.cpu.data 82918.294254                       # average WriteReq mshr miss latency
system.cpu.dcache.WriteReq_avg_mshr_miss_latency::total 82918.294254                       # average WriteReq mshr miss latency
system.cpu.dcache.SoftPFReq_hits::.cpu.data         3332                       # number of SoftPFReq hits
system.cpu.dcache.SoftPFReq_hits::total          3332                       # number of SoftPFReq hits
system.cpu.dcache.SoftPFReq_misses::.cpu.data           29                       # number of SoftPFReq misses
system.cpu.dcache.SoftPFReq_misses::total           29                       # number of SoftPFReq misses
system.cpu.dcache.SoftPFReq_accesses::.cpu.data         3361                       # number of SoftPFReq accesses(hits+misses)
system.cpu.dcache.SoftPFReq_accesses::total         3361                       # number of SoftPFReq accesses(hits+misses)
system.cpu.dcache.SoftPFReq_miss_rate::.cpu.data     0.008628                       # miss rate for SoftPFReq accesses
system.cpu.dcache.SoftPFReq_miss_rate::total     0.008628                       # miss rate for SoftPFReq accesses
system.cpu.dcache.SoftPFReq_mshr_misses::.cpu.data           24                       # number of SoftPFReq MSHR misses
system.cpu.dcache.SoftPFReq_mshr_misses::total           24                       # number of SoftPFReq MSHR misses
system.cpu.dcache.SoftPFReq_mshr_miss_latency::.cpu.data      1121000                       # number of SoftPFReq MSHR miss cycles
system.cpu.dcache.SoftPFReq_mshr_miss_latency::total      1121000                       # number of SoftPFReq MSHR miss cycles
system.cpu.dcache.SoftPFReq_mshr_miss_rate::.cpu.data     0.007141                       # mshr miss rate for SoftPFReq accesses
system.cpu.dcache.SoftPFReq_mshr_miss_rate::total     0.007141                       # mshr miss rate for SoftPFReq accesses
system.cpu.dcache.SoftPFReq_avg_mshr_miss_latency::.cpu.data 46708.333333                       # average SoftPFReq mshr miss latency
system.cpu.dcache.SoftPFReq_avg_mshr_miss_latency::total 46708.333333                       # average SoftPFReq mshr miss latency
system.cpu.dcache.LoadLockedReq_hits::.cpu.data        89080                       # number of LoadLockedReq hits
system.cpu.dcache.LoadLockedReq_hits::total        89080                       # number of LoadLockedReq hits
system.cpu.dcache.LoadLockedReq_accesses::.cpu.data        89080                       # number of LoadLockedReq accesses(hits+misses)
system.cpu.dcache.LoadLockedReq_accesses::total        89080                       # number of LoadLockedReq accesses(hits+misses)
system.cpu.dcache.StoreCondReq_hits::.cpu.data        89080                       # number of StoreCondReq hits
system.cpu.dcache.StoreCondReq_hits::total        89080                       # number of StoreCondReq hits
system.cpu.dcache.StoreCondReq_accesses::.cpu.data        89080                       # number of StoreCondReq accesses(hits+misses)
system.cpu.dcache.StoreCondReq_accesses::total        89080                       # number of StoreCondReq accesses(hits+misses)
system.cpu.dcache.power_state.pwrStateResidencyTicks::UNDEFINED  62695331500                       # Cumulative time (in ticks) in various power states
system.cpu.dcache.tags.tagsinuse          1020.820504                       # Cycle average of tags in use
system.cpu.dcache.tags.total_refs            35849168                       # Total number of references to valid blocks.
system.cpu.dcache.tags.sampled_refs             51748                       # Sample count of references to valid blocks.
system.cpu.dcache.tags.avg_refs            692.764319                       # Average number of references to valid blocks.
system.cpu.dcache.tags.warmup_cycle            174500                       # Cycle when the warmup percentage was hit.
system.cpu.dcache.tags.occ_blocks::.cpu.data  1020.820504                       # Average occupied blocks per requestor
system.cpu.dcache.tags.occ_percent::.cpu.data     0.996895                       # Average percentage of cache occupancy
system.cpu.dcache.tags.occ_percent::total     0.996895                       # Average percentage of cache occupancy
system.cpu.dcache.tags.occ_task_id_blocks::1024         1024                       # Occupied blocks per task id
system.cpu.dcache.tags.age_task_id_blocks_1024::0            4                       # Occupied blocks per task id
system.cpu.dcache.tags.age_task_id_blocks_1024::1           35                       # Occupied blocks per task id
system.cpu.dcache.tags.age_task_id_blocks_1024::2          522                       # Occupied blocks per task id
system.cpu.dcache.tags.age_task_id_blocks_1024::3          396                       # Occupied blocks per task id
system.cpu.dcache.tags.age_task_id_blocks_1024::4           67                       # Occupied blocks per task id
system.cpu.dcache.tags.occ_task_id_percent::1024            1                       # Percentage of cache occupancy per task id
system.cpu.dcache.tags.tag_accesses         143522292                       # Number of tag accesses
system.cpu.dcache.tags.data_accesses        143522292                       # Number of data accesses
system.cpu.dcache.tags.power_state.pwrStateResidencyTicks::UNDEFINED  62695331500                       # Cumulative time (in ticks) in various power states
system.cpu.power_state.pwrStateResidencyTicks::ON  62695331500                       # Cumulative time (in ticks) in various power states
system.cpu.branchPred.lookups                20360268                       # Number of BP lookups
system.cpu.branchPred.condPredicted          16297505                       # Number of conditional branches predicted
system.cpu.branchPred.condIncorrect             53386                       # Number of conditional branches incorrect
system.cpu.branchPred.BTBLookups              8737491                       # Number of BTB lookups
system.cpu.branchPred.BTBHits                 8736096                       # Number of BTB hits
system.cpu.branchPred.BTBHitPct             99.984034                       # BTB Hit Percentage
system.cpu.branchPred.RASUsed                 1050567                       # Number of times the RAS was used to get a target.
system.cpu.branchPred.RASIncorrect                324                       # Number of incorrect RAS predictions.
system.cpu.branchPred.indirectLookups          434000                       # Number of indirect predictor lookups.
system.cpu.branchPred.indirectHits             300030                       # Number of indirect target hits.
system.cpu.branchPred.indirectMisses           133970                       # Number of indirect misses.
system.cpu.branchPred.indirectMispredicted         1038                       # Number of mispredicted indirect branches.
system.cpu.fetch2.intInstructions            49060591                       # Number of integer instructions successfully decoded
system.cpu.fetch2.fpInstructions                    0                       # Number of floating point instructions successfully decoded
system.cpu.fetch2.vecInstructions                   0                       # Number of SIMD instructions successfully decoded
system.cpu.fetch2.loadInstructions           17106450                       # Number of memory load instructions successfully decoded
system.cpu.fetch2.storeInstructions           9763883                       # Number of memory store instructions successfully decoded
system.cpu.fetch2.amoInstructions                   0                       # Number of memory atomic instructions successfully decoded
system.cpu.itb.instHits                             0                       # ITB inst hits
system.cpu.itb.instMisses                           0                       # ITB inst misses
system.cpu.itb.readHits                             0                       # DTB read hits
system.cpu.itb.readMisses                           0                       # DTB read misses
system.cpu.itb.writeHits                            0                       # DTB write hits
system.cpu.itb.writeMisses                          0                       # DTB write misses
system.cpu.itb.inserts                              0                       # Number of times an entry is inserted into the TLB
system.cpu.itb.flushTlb                             0                       # Number of times complete TLB was flushed
system.cpu.itb.flushTlbMva                          0                       # Number of times TLB was flushed by MVA
system.cpu.itb.flushTlbMvaAsid                      0                       # Number of times TLB was flushed by MVA & ASID
system.cpu.itb.flushTlbAsid                         0                       # Number of times TLB was flushed by ASID
system.cpu.itb.flushedEntries                       0                       # Number of entries that have been flushed from TLB
system.cpu.itb.alignFaults                          0                       # Number of TLB faults due to alignment restrictions
system.cpu.itb.prefetchFaults                       0                       # Number of TLB faults due to prefetch
system.cpu.itb.domainFaults                         0                       # Number of TLB faults due to domain restrictions
system.cpu.itb.permsFaults                          0                       # Number of TLB faults due to permissions restrictions
system.cpu.itb.readAccesses                         0                       # DTB read accesses
system.cpu.itb.writeAccesses                        0                       # DTB write accesses
system.cpu.itb.instAccesses                         0                       # ITB inst accesses
system.cpu.itb.hits                                 0                       # Total TLB (inst and data) hits
system.cpu.itb.misses                               0                       # Total TLB (inst and data) misses
system.cpu.itb.accesses                             0                       # Total TLB (inst and data) accesses
system.cpu.itb.walker.walks                         0                       # Table walker walks requested
system.cpu.itb.walker.requestOrigin_Requested::Data            0                       # Table walker requests started/completed, data/inst
system.cpu.itb.walker.requestOrigin_Requested::Inst            0                       # Table walker requests started/completed, data/inst
system.cpu.itb.walker.requestOrigin_Requested::total            0                       # Table walker requests started/completed, data/inst
system.cpu.itb.walker.requestOrigin_Completed::Data            0                       # Table walker requests started/completed, data/inst
system.cpu.itb.walker.requestOrigin_Completed::Inst            0                       # Table walker requests started/completed, data/inst
system.cpu.itb.walker.requestOrigin_Completed::total            0                       # Table walker requests started/completed, data/inst
system.cpu.itb.walker.requestOrigin::total            0                       # Table walker requests started/completed, data/inst
system.cpu.itb.walker.power_state.pwrStateResidencyTicks::UNDEFINED  62695331500                       # Cumulative time (in ticks) in various power states
system.cpu.itb.stage2_mmu.stage2_tlb.instHits            0                       # ITB inst hits
system.cpu.itb.stage2_mmu.stage2_tlb.instMisses            0                       # ITB inst misses
system.cpu.itb.stage2_mmu.stage2_tlb.readHits            0                       # DTB read hits
system.cpu.itb.stage2_mmu.stage2_tlb.readMisses            0                       # DTB read misses
system.cpu.itb.stage2_mmu.stage2_tlb.writeHits            0                       # DTB write hits
system.cpu.itb.stage2_mmu.stage2_tlb.writeMisses            0                       # DTB write misses
system.cpu.itb.stage2_mmu.stage2_tlb.inserts            0                       # Number of times an entry is inserted into the TLB
system.cpu.itb.stage2_mmu.stage2_tlb.flushTlb            0                       # Number of times complete TLB was flushed
system.cpu.itb.stage2_mmu.stage2_tlb.flushTlbMva            0                       # Number of times TLB was flushed by MVA
system.cpu.itb.stage2_mmu.stage2_tlb.flushTlbMvaAsid            0                       # Number of times TLB was flushed by MVA & ASID
system.cpu.itb.stage2_mmu.stage2_tlb.flushTlbAsid            0                       # Number of times TLB was flushed by ASID
system.cpu.itb.stage2_mmu.stage2_tlb.flushedEntries            0                       # Number of entries that have been flushed from TLB
system.cpu.itb.stage2_mmu.stage2_tlb.alignFaults            0                       # Number of TLB faults due to alignment restrictions
system.cpu.itb.stage2_mmu.stage2_tlb.prefetchFaults            0                       # Number of TLB faults due to prefetch
system.cpu.itb.stage2_mmu.stage2_tlb.domainFaults            0                       # Number of TLB faults due to domain restrictions
system.cpu.itb.stage2_mmu.stage2_tlb.permsFaults            0                       # Number of TLB faults due to permissions restrictions
system.cpu.itb.stage2_mmu.stage2_tlb.readAccesses            0                       # DTB read accesses
system.cpu.itb.stage2_mmu.stage2_tlb.writeAccesses            0                       # DTB write accesses
system.cpu.itb.stage2_mmu.stage2_tlb.instAccesses            0                       # ITB inst accesses
system.cpu.itb.stage2_mmu.stage2_tlb.hits            0                       # Total TLB (inst and data) hits
system.cpu.itb.stage2_mmu.stage2_tlb.misses            0                       # Total TLB (inst and data) misses
system.cpu.itb.stage2_mmu.stage2_tlb.accesses            0                       # Total TLB (inst and data) accesses
system.cpu.itb.stage2_mmu.stage2_tlb.walker.walks            0                       # Table walker walks requested
system.cpu.itb.stage2_mmu.stage2_tlb.walker.requestOrigin_Requested::Data            0                       # Table walker requests started/completed, data/inst
system.cpu.itb.stage2_mmu.stage2_tlb.walker.requestOrigin_Requested::Inst            0                       # Table walker requests started/completed, data/inst
system.cpu.itb.stage2_mmu.stage2_tlb.walker.requestOrigin_Requested::total            0                       # Table walker requests started/completed, data/inst
system.cpu.itb.stage2_mmu.stage2_tlb.walker.requestOrigin_Completed::Data            0                       # Table walker requests started/completed, data/inst
system.cpu.itb.stage2_mmu.stage2_tlb.walker.requestOrigin_Completed::Inst            0                       # Table walker requests started/completed, data/inst
system.cpu.itb.stage2_mmu.stage2_tlb.walker.requestOrigin_Completed::total            0                       # Table walker requests started/completed, data/inst
system.cpu.itb.stage2_mmu.stage2_tlb.walker.requestOrigin::total            0                       # Table walker requests started/completed, data/inst
system.cpu.itb.stage2_mmu.stage2_tlb.walker.power_state.pwrStateResidencyTicks::UNDEFINED  62695331500                       # Cumulative time (in ticks) in various power states

---------- End Simulation Statistics   ----------
