
---------- Begin Simulation Statistics ----------
final_tick                               505713625500                       # Number of ticks from beginning of simulation (restored from checkpoints and never reset)
host_inst_rate                                 155092                       # Simulator instruction rate (inst/s)
host_mem_usage                                 683156                       # Number of bytes of host memory used
host_op_rate                                   285708                       # Simulator op (including micro ops) rate (op/s)
host_seconds                                   644.78                       # Real time elapsed on the host
host_tick_rate                              784319540                       # Simulator tick rate (ticks/s)
sim_freq                                 1000000000000                       # Frequency of simulated ticks
sim_insts                                   100000000                       # Number of instructions simulated
sim_ops                                     184218810                       # Number of ops (including micro ops) simulated
sim_seconds                                  0.505714                       # Number of seconds simulated
sim_ticks                                505713625500                       # Number of ticks simulated
system.cpu.committedInsts                   100000000                       # Number of instructions committed
system.cpu.committedOps                     184218810                       # Number of ops (including micro ops) committed
system.cpu.cpi                              10.114273                       # CPI: cycles per instruction
system.cpu.discardedOps                          4398                       # Number of ops (including micro ops) which were discarded before commit
system.cpu.idleCycles                       789741469                       # Total number of cycles that the object has spent stopped
system.cpu.ipc                               0.098870                       # IPC: instructions per cycle
system.cpu.numCycles                       1011427251                       # number of cpu cycles simulated
system.cpu.numFetchSuspends                         0                       # Number of times Execute suspended instruction fetching
system.cpu.numWorkItemsCompleted                    0                       # number of work items this cpu completed
system.cpu.numWorkItemsStarted                      0                       # number of work items this cpu started
system.cpu.op_class_0::No_OpClass                   0      0.00%      0.00% # Class of committed instruction
system.cpu.op_class_0::IntAlu                97640467     53.00%     53.00% # Class of committed instruction
system.cpu.op_class_0::IntMult                 114702      0.06%     53.06% # Class of committed instruction
system.cpu.op_class_0::IntDiv                       0      0.00%     53.06% # Class of committed instruction
system.cpu.op_class_0::FloatAdd                     0      0.00%     53.06% # Class of committed instruction
system.cpu.op_class_0::FloatCmp                     0      0.00%     53.06% # Class of committed instruction
system.cpu.op_class_0::FloatCvt                     0      0.00%     53.06% # Class of committed instruction
system.cpu.op_class_0::FloatMult                    0      0.00%     53.06% # Class of committed instruction
system.cpu.op_class_0::FloatMultAcc                 0      0.00%     53.06% # Class of committed instruction
system.cpu.op_class_0::FloatDiv                     0      0.00%     53.06% # Class of committed instruction
system.cpu.op_class_0::FloatMisc                    0      0.00%     53.06% # Class of committed instruction
system.cpu.op_class_0::FloatSqrt                    0      0.00%     53.06% # Class of committed instruction
system.cpu.op_class_0::SimdAdd                      8      0.00%     53.06% # Class of committed instruction
system.cpu.op_class_0::SimdAddAcc                   0      0.00%     53.06% # Class of committed instruction
system.cpu.op_class_0::SimdAlu                     10      0.00%     53.06% # Class of committed instruction
system.cpu.op_class_0::SimdCmp                      8      0.00%     53.06% # Class of committed instruction
system.cpu.op_class_0::SimdCvt                      0      0.00%     53.06% # Class of committed instruction
system.cpu.op_class_0::SimdMisc                     1      0.00%     53.06% # Class of committed instruction
system.cpu.op_class_0::SimdMult                     0      0.00%     53.06% # Class of committed instruction
system.cpu.op_class_0::SimdMultAcc                  0      0.00%     53.06% # Class of committed instruction
system.cpu.op_class_0::SimdShift                    0      0.00%     53.06% # Class of committed instruction
system.cpu.op_class_0::SimdShiftAcc                 0      0.00%     53.06% # Class of committed instruction
system.cpu.op_class_0::SimdDiv                      0      0.00%     53.06% # Class of committed instruction
system.cpu.op_class_0::SimdSqrt                     0      0.00%     53.06% # Class of committed instruction
system.cpu.op_class_0::SimdFloatAdd                 0      0.00%     53.06% # Class of committed instruction
system.cpu.op_class_0::SimdFloatAlu                 0      0.00%     53.06% # Class of committed instruction
system.cpu.op_class_0::SimdFloatCmp                 0      0.00%     53.06% # Class of committed instruction
system.cpu.op_class_0::SimdFloatCvt                 0      0.00%     53.06% # Class of committed instruction
system.cpu.op_class_0::SimdFloatDiv                 0      0.00%     53.06% # Class of committed instruction
system.cpu.op_class_0::SimdFloatMisc               24      0.00%     53.06% # Class of committed instruction
system.cpu.op_class_0::SimdFloatMult                0      0.00%     53.06% # Class of committed instruction
system.cpu.op_class_0::SimdFloatMultAcc             0      0.00%     53.06% # Class of committed instruction
system.cpu.op_class_0::SimdFloatSqrt                0      0.00%     53.06% # Class of committed instruction
system.cpu.op_class_0::SimdReduceAdd                0      0.00%     53.06% # Class of committed instruction
system.cpu.op_class_0::SimdReduceAlu                0      0.00%     53.06% # Class of committed instruction
system.cpu.op_class_0::SimdReduceCmp                0      0.00%     53.06% # Class of committed instruction
system.cpu.op_class_0::SimdFloatReduceAdd            0      0.00%     53.06% # Class of committed instruction
system.cpu.op_class_0::SimdFloatReduceCmp            0      0.00%     53.06% # Class of committed instruction
system.cpu.op_class_0::SimdAes                      0      0.00%     53.06% # Class of committed instruction
system.cpu.op_class_0::SimdAesMix                   0      0.00%     53.06% # Class of committed instruction
system.cpu.op_class_0::SimdSha1Hash                 0      0.00%     53.06% # Class of committed instruction
system.cpu.op_class_0::SimdSha1Hash2                0      0.00%     53.06% # Class of committed instruction
system.cpu.op_class_0::SimdSha256Hash               0      0.00%     53.06% # Class of committed instruction
system.cpu.op_class_0::SimdSha256Hash2              0      0.00%     53.06% # Class of committed instruction
system.cpu.op_class_0::SimdShaSigma2                0      0.00%     53.06% # Class of committed instruction
system.cpu.op_class_0::SimdShaSigma3                0      0.00%     53.06% # Class of committed instruction
system.cpu.op_class_0::SimdPredAlu                  0      0.00%     53.06% # Class of committed instruction
system.cpu.op_class_0::MemRead                2082677      1.13%     54.20% # Class of committed instruction
system.cpu.op_class_0::MemWrite              84380913     45.80%    100.00% # Class of committed instruction
system.cpu.op_class_0::FloatMemRead                 0      0.00%    100.00% # Class of committed instruction
system.cpu.op_class_0::FloatMemWrite                0      0.00%    100.00% # Class of committed instruction
system.cpu.op_class_0::IprAccess                    0      0.00%    100.00% # Class of committed instruction
system.cpu.op_class_0::InstPrefetch                 0      0.00%    100.00% # Class of committed instruction
system.cpu.op_class_0::total                184218810                       # Class of committed instruction
system.cpu.tickCycles                       221685782                       # Number of cycles that the object actually ticked
system.cpu.workload.numSyscalls                    19                       # Number of system calls
system.membus.snoop_filter.hit_multi_requests            0                       # Number of requests hitting in the snoop filter with multiple (>1) holders of the requested data.
system.membus.snoop_filter.hit_multi_snoops            0                       # Number of snoops hitting in the snoop filter with multiple (>1) holders of the requested data.
system.membus.snoop_filter.hit_single_requests      5230685                       # Number of requests hitting in the snoop filter with a single holder of the requested data.
system.membus.snoop_filter.hit_single_snoops            0                       # Number of snoops hitting in the snoop filter with a single holder of the requested data.
system.membus.snoop_filter.tot_requests      10494565                       # Total number of requests made to the snoop filter.
system.membus.snoop_filter.tot_snoops               0                       # Total number of snoops made to the snoop filter.
system.tol2bus.snoop_filter.hit_multi_requests           56                       # Number of requests hitting in the snoop filter with multiple (>1) holders of the requested data.
system.tol2bus.snoop_filter.hit_multi_snoops            0                       # Number of snoops hitting in the snoop filter with multiple (>1) holders of the requested data.
system.tol2bus.snoop_filter.hit_single_requests      5263120                       # Number of requests hitting in the snoop filter with a single holder of the requested data.
system.tol2bus.snoop_filter.hit_single_snoops          533                       # Number of snoops hitting in the snoop filter with a single holder of the requested data.
system.tol2bus.snoop_filter.tot_requests     10527191                       # Total number of requests made to the snoop filter.
system.tol2bus.snoop_filter.tot_snoops            533                       # Total number of snoops made to the snoop filter.
system.membus.trans_dist::ReadResp                868                       # Transaction distribution
system.membus.trans_dist::WritebackDirty      5230284                       # Transaction distribution
system.membus.trans_dist::CleanEvict              390                       # Transaction distribution
system.membus.trans_dist::ReadExReq           5263023                       # Transaction distribution
system.membus.trans_dist::ReadExResp          5263023                       # Transaction distribution
system.membus.trans_dist::ReadSharedReq           868                       # Transaction distribution
system.membus.pkt_count_system.l2.mem_side_port::system.mem_ctrls.port     15758456                       # Packet count per connected requestor and responder (bytes)
system.membus.pkt_count::total               15758456                       # Packet count per connected requestor and responder (bytes)
system.membus.pkt_size_system.l2.mem_side_port::system.mem_ctrls.port    671627200                       # Cumulative packet size per connected requestor and responder (bytes)
system.membus.pkt_size::total               671627200                       # Cumulative packet size per connected requestor and responder (bytes)
system.membus.snoops                                0                       # Total snoops (count)
system.membus.snoopTraffic                          0                       # Total snoop traffic (bytes)
system.membus.snoop_fanout::samples           5263891                       # Request fanout histogram
system.membus.snoop_fanout::mean                    0                       # Request fanout histogram
system.membus.snoop_fanout::stdev                   0                       # Request fanout histogram
system.membus.snoop_fanout::underflows              0      0.00%      0.00% # Request fanout histogram
system.membus.snoop_fanout::0                 5263891    100.00%    100.00% # Request fanout histogram
system.membus.snoop_fanout::1                       0      0.00%    100.00% # Request fanout histogram
system.membus.snoop_fanout::overflows               0      0.00%    100.00% # Request fanout histogram
system.membus.snoop_fanout::min_value               0                       # Request fanout histogram
system.membus.snoop_fanout::max_value               0                       # Request fanout histogram
system.membus.snoop_fanout::total             5263891                       # Request fanout histogram
system.membus.reqLayer0.occupancy         31438311500                       # Layer occupancy (ticks)
system.membus.reqLayer0.utilization               6.2                       # Layer utilization (%)
system.membus.respLayer1.occupancy        29016600418                       # Layer occupancy (ticks)
system.membus.respLayer1.utilization              5.7                       # Layer utilization (%)
system.membus.power_state.pwrStateResidencyTicks::UNDEFINED 505713625500                       # Cumulative time (in ticks) in various power states
system.tol2bus.trans_dist::ReadResp              1007                       # Transaction distribution
system.tol2bus.trans_dist::WritebackDirty     10492894                       # Transaction distribution
system.tol2bus.trans_dist::WritebackClean          202                       # Transaction distribution
system.tol2bus.trans_dist::CleanEvict            1231                       # Transaction distribution
system.tol2bus.trans_dist::ReadExReq          5263064                       # Transaction distribution
system.tol2bus.trans_dist::ReadExResp         5263063                       # Transaction distribution
system.tol2bus.trans_dist::ReadCleanReq           640                       # Transaction distribution
system.tol2bus.trans_dist::ReadSharedReq          367                       # Transaction distribution
system.tol2bus.pkt_count_system.cpu.icache.mem_side_port::system.l2.cpu_side_port         1482                       # Packet count per connected requestor and responder (bytes)
system.tol2bus.pkt_count_system.cpu.dcache.mem_side_port::system.l2.cpu_side_port     15789779                       # Packet count per connected requestor and responder (bytes)
system.tol2bus.pkt_count::total              15791261                       # Packet count per connected requestor and responder (bytes)
system.tol2bus.pkt_size_system.cpu.icache.mem_side_port::system.l2.cpu_side_port        53888                       # Cumulative packet size per connected requestor and responder (bytes)
system.tol2bus.pkt_size_system.cpu.dcache.mem_side_port::system.l2.cpu_side_port    673666560                       # Cumulative packet size per connected requestor and responder (bytes)
system.tol2bus.pkt_size::total              673720448                       # Cumulative packet size per connected requestor and responder (bytes)
system.tol2bus.snoops                         5231207                       # Total snoops (count)
system.tol2bus.snoopTraffic                 334738176                       # Total snoop traffic (bytes)
system.tol2bus.snoop_fanout::samples         10495278                       # Request fanout histogram
system.tol2bus.snoop_fanout::mean            0.000056                       # Request fanout histogram
system.tol2bus.snoop_fanout::stdev           0.007491                       # Request fanout histogram
system.tol2bus.snoop_fanout::underflows             0      0.00%      0.00% # Request fanout histogram
system.tol2bus.snoop_fanout::0               10494689     99.99%     99.99% # Request fanout histogram
system.tol2bus.snoop_fanout::1                    589      0.01%    100.00% # Request fanout histogram
system.tol2bus.snoop_fanout::2                      0      0.00%    100.00% # Request fanout histogram
system.tol2bus.snoop_fanout::overflows              0      0.00%    100.00% # Request fanout histogram
system.tol2bus.snoop_fanout::min_value              0                       # Request fanout histogram
system.tol2bus.snoop_fanout::max_value              1                       # Request fanout histogram
system.tol2bus.snoop_fanout::total           10495278                       # Request fanout histogram
system.tol2bus.reqLayer0.occupancy        10526407500                       # Layer occupancy (ticks)
system.tol2bus.reqLayer0.utilization              2.1                       # Layer utilization (%)
system.tol2bus.respLayer1.occupancy        7895147994                       # Layer occupancy (ticks)
system.tol2bus.respLayer1.utilization             1.6                       # Layer utilization (%)
system.tol2bus.respLayer0.occupancy            960000                       # Layer occupancy (ticks)
system.tol2bus.respLayer0.utilization             0.0                       # Layer utilization (%)
system.tol2bus.power_state.pwrStateResidencyTicks::UNDEFINED 505713625500                       # Cumulative time (in ticks) in various power states
system.voltage_domain.voltage                       1                       # Voltage in Volts
system.clk_domain.clock                          1000                       # Clock period in ticks
system.l2.demand_hits::.cpu.inst                   52                       # number of demand (read+write) hits
system.l2.demand_hits::.cpu.data                  121                       # number of demand (read+write) hits
system.l2.demand_hits::total                      173                       # number of demand (read+write) hits
system.l2.overall_hits::.cpu.inst                  52                       # number of overall hits
system.l2.overall_hits::.cpu.data                 121                       # number of overall hits
system.l2.overall_hits::total                     173                       # number of overall hits
system.l2.demand_misses::.cpu.inst                588                       # number of demand (read+write) misses
system.l2.demand_misses::.cpu.data            5263310                       # number of demand (read+write) misses
system.l2.demand_misses::total                5263898                       # number of demand (read+write) misses
system.l2.overall_misses::.cpu.inst               588                       # number of overall misses
system.l2.overall_misses::.cpu.data           5263310                       # number of overall misses
system.l2.overall_misses::total               5263898                       # number of overall misses
system.l2.demand_miss_latency::.cpu.inst     46482000                       # number of demand (read+write) miss cycles
system.l2.demand_miss_latency::.cpu.data 415920260000                       # number of demand (read+write) miss cycles
system.l2.demand_miss_latency::total     415966742000                       # number of demand (read+write) miss cycles
system.l2.overall_miss_latency::.cpu.inst     46482000                       # number of overall miss cycles
system.l2.overall_miss_latency::.cpu.data 415920260000                       # number of overall miss cycles
system.l2.overall_miss_latency::total    415966742000                       # number of overall miss cycles
system.l2.demand_accesses::.cpu.inst              640                       # number of demand (read+write) accesses
system.l2.demand_accesses::.cpu.data          5263431                       # number of demand (read+write) accesses
system.l2.demand_accesses::total              5264071                       # number of demand (read+write) accesses
system.l2.overall_accesses::.cpu.inst             640                       # number of overall (read+write) accesses
system.l2.overall_accesses::.cpu.data         5263431                       # number of overall (read+write) accesses
system.l2.overall_accesses::total             5264071                       # number of overall (read+write) accesses
system.l2.demand_miss_rate::.cpu.inst        0.918750                       # miss rate for demand accesses
system.l2.demand_miss_rate::.cpu.data        0.999977                       # miss rate for demand accesses
system.l2.demand_miss_rate::total            0.999967                       # miss rate for demand accesses
system.l2.overall_miss_rate::.cpu.inst       0.918750                       # miss rate for overall accesses
system.l2.overall_miss_rate::.cpu.data       0.999977                       # miss rate for overall accesses
system.l2.overall_miss_rate::total           0.999967                       # miss rate for overall accesses
system.l2.demand_avg_miss_latency::.cpu.inst 79051.020408                       # average overall miss latency
system.l2.demand_avg_miss_latency::.cpu.data 79022.565648                       # average overall miss latency
system.l2.demand_avg_miss_latency::total 79022.568826                       # average overall miss latency
system.l2.overall_avg_miss_latency::.cpu.inst 79051.020408                       # average overall miss latency
system.l2.overall_avg_miss_latency::.cpu.data 79022.565648                       # average overall miss latency
system.l2.overall_avg_miss_latency::total 79022.568826                       # average overall miss latency
system.l2.blocked_cycles::no_mshrs                  0                       # number of cycles access was blocked
system.l2.blocked_cycles::no_targets                0                       # number of cycles access was blocked
system.l2.blocked::no_mshrs                         0                       # number of cycles access was blocked
system.l2.blocked::no_targets                       0                       # number of cycles access was blocked
system.l2.avg_blocked_cycles::no_mshrs            nan                       # average number of cycles each access was blocked
system.l2.avg_blocked_cycles::no_targets          nan                       # average number of cycles each access was blocked
system.l2.writebacks::.writebacks             5230284                       # number of writebacks
system.l2.writebacks::total                   5230284                       # number of writebacks
system.l2.demand_mshr_hits::.cpu.data               6                       # number of demand (read+write) MSHR hits
system.l2.demand_mshr_hits::total                   6                       # number of demand (read+write) MSHR hits
system.l2.overall_mshr_hits::.cpu.data              6                       # number of overall MSHR hits
system.l2.overall_mshr_hits::total                  6                       # number of overall MSHR hits
system.l2.demand_mshr_misses::.cpu.inst           588                       # number of demand (read+write) MSHR misses
system.l2.demand_mshr_misses::.cpu.data       5263304                       # number of demand (read+write) MSHR misses
system.l2.demand_mshr_misses::total           5263892                       # number of demand (read+write) MSHR misses
system.l2.overall_mshr_misses::.cpu.inst          588                       # number of overall MSHR misses
system.l2.overall_mshr_misses::.cpu.data      5263304                       # number of overall MSHR misses
system.l2.overall_mshr_misses::total          5263892                       # number of overall MSHR misses
system.l2.demand_mshr_miss_latency::.cpu.inst     40602000                       # number of demand (read+write) MSHR miss cycles
system.l2.demand_mshr_miss_latency::.cpu.data 363286838500                       # number of demand (read+write) MSHR miss cycles
system.l2.demand_mshr_miss_latency::total 363327440500                       # number of demand (read+write) MSHR miss cycles
system.l2.overall_mshr_miss_latency::.cpu.inst     40602000                       # number of overall MSHR miss cycles
system.l2.overall_mshr_miss_latency::.cpu.data 363286838500                       # number of overall MSHR miss cycles
system.l2.overall_mshr_miss_latency::total 363327440500                       # number of overall MSHR miss cycles
system.l2.demand_mshr_miss_rate::.cpu.inst     0.918750                       # mshr miss rate for demand accesses
system.l2.demand_mshr_miss_rate::.cpu.data     0.999976                       # mshr miss rate for demand accesses
system.l2.demand_mshr_miss_rate::total       0.999966                       # mshr miss rate for demand accesses
system.l2.overall_mshr_miss_rate::.cpu.inst     0.918750                       # mshr miss rate for overall accesses
system.l2.overall_mshr_miss_rate::.cpu.data     0.999976                       # mshr miss rate for overall accesses
system.l2.overall_mshr_miss_rate::total      0.999966                       # mshr miss rate for overall accesses
system.l2.demand_avg_mshr_miss_latency::.cpu.inst 69051.020408                       # average overall mshr miss latency
system.l2.demand_avg_mshr_miss_latency::.cpu.data 69022.583248                       # average overall mshr miss latency
system.l2.demand_avg_mshr_miss_latency::total 69022.586425                       # average overall mshr miss latency
system.l2.overall_avg_mshr_miss_latency::.cpu.inst 69051.020408                       # average overall mshr miss latency
system.l2.overall_avg_mshr_miss_latency::.cpu.data 69022.583248                       # average overall mshr miss latency
system.l2.overall_avg_mshr_miss_latency::total 69022.586425                       # average overall mshr miss latency
system.l2.replacements                        5231207                       # number of replacements
system.l2.WritebackDirty_hits::.writebacks      5262610                       # number of WritebackDirty hits
system.l2.WritebackDirty_hits::total          5262610                       # number of WritebackDirty hits
system.l2.WritebackDirty_accesses::.writebacks      5262610                       # number of WritebackDirty accesses(hits+misses)
system.l2.WritebackDirty_accesses::total      5262610                       # number of WritebackDirty accesses(hits+misses)
system.l2.WritebackClean_hits::.writebacks          196                       # number of WritebackClean hits
system.l2.WritebackClean_hits::total              196                       # number of WritebackClean hits
system.l2.WritebackClean_accesses::.writebacks          196                       # number of WritebackClean accesses(hits+misses)
system.l2.WritebackClean_accesses::total          196                       # number of WritebackClean accesses(hits+misses)
system.l2.ReadExReq_hits::.cpu.data                40                       # number of ReadExReq hits
system.l2.ReadExReq_hits::total                    40                       # number of ReadExReq hits
system.l2.ReadExReq_misses::.cpu.data         5263024                       # number of ReadExReq misses
system.l2.ReadExReq_misses::total             5263024                       # number of ReadExReq misses
system.l2.ReadExReq_miss_latency::.cpu.data 415896462000                       # number of ReadExReq miss cycles
system.l2.ReadExReq_miss_latency::total  415896462000                       # number of ReadExReq miss cycles
system.l2.ReadExReq_accesses::.cpu.data       5263064                       # number of ReadExReq accesses(hits+misses)
system.l2.ReadExReq_accesses::total           5263064                       # number of ReadExReq accesses(hits+misses)
system.l2.ReadExReq_miss_rate::.cpu.data     0.999992                       # miss rate for ReadExReq accesses
system.l2.ReadExReq_miss_rate::total         0.999992                       # miss rate for ReadExReq accesses
system.l2.ReadExReq_avg_miss_latency::.cpu.data 79022.338108                       # average ReadExReq miss latency
system.l2.ReadExReq_avg_miss_latency::total 79022.338108                       # average ReadExReq miss latency
system.l2.ReadExReq_mshr_misses::.cpu.data      5263024                       # number of ReadExReq MSHR misses
system.l2.ReadExReq_mshr_misses::total        5263024                       # number of ReadExReq MSHR misses
system.l2.ReadExReq_mshr_miss_latency::.cpu.data 363266232000                       # number of ReadExReq MSHR miss cycles
system.l2.ReadExReq_mshr_miss_latency::total 363266232000                       # number of ReadExReq MSHR miss cycles
system.l2.ReadExReq_mshr_miss_rate::.cpu.data     0.999992                       # mshr miss rate for ReadExReq accesses
system.l2.ReadExReq_mshr_miss_rate::total     0.999992                       # mshr miss rate for ReadExReq accesses
system.l2.ReadExReq_avg_mshr_miss_latency::.cpu.data 69022.340008                       # average ReadExReq mshr miss latency
system.l2.ReadExReq_avg_mshr_miss_latency::total 69022.340008                       # average ReadExReq mshr miss latency
system.l2.ReadCleanReq_hits::.cpu.inst             52                       # number of ReadCleanReq hits
system.l2.ReadCleanReq_hits::total                 52                       # number of ReadCleanReq hits
system.l2.ReadCleanReq_misses::.cpu.inst          588                       # number of ReadCleanReq misses
system.l2.ReadCleanReq_misses::total              588                       # number of ReadCleanReq misses
system.l2.ReadCleanReq_miss_latency::.cpu.inst     46482000                       # number of ReadCleanReq miss cycles
system.l2.ReadCleanReq_miss_latency::total     46482000                       # number of ReadCleanReq miss cycles
system.l2.ReadCleanReq_accesses::.cpu.inst          640                       # number of ReadCleanReq accesses(hits+misses)
system.l2.ReadCleanReq_accesses::total            640                       # number of ReadCleanReq accesses(hits+misses)
system.l2.ReadCleanReq_miss_rate::.cpu.inst     0.918750                       # miss rate for ReadCleanReq accesses
system.l2.ReadCleanReq_miss_rate::total      0.918750                       # miss rate for ReadCleanReq accesses
system.l2.ReadCleanReq_avg_miss_latency::.cpu.inst 79051.020408                       # average ReadCleanReq miss latency
system.l2.ReadCleanReq_avg_miss_latency::total 79051.020408                       # average ReadCleanReq miss latency
system.l2.ReadCleanReq_mshr_misses::.cpu.inst          588                       # number of ReadCleanReq MSHR misses
system.l2.ReadCleanReq_mshr_misses::total          588                       # number of ReadCleanReq MSHR misses
system.l2.ReadCleanReq_mshr_miss_latency::.cpu.inst     40602000                       # number of ReadCleanReq MSHR miss cycles
system.l2.ReadCleanReq_mshr_miss_latency::total     40602000                       # number of ReadCleanReq MSHR miss cycles
system.l2.ReadCleanReq_mshr_miss_rate::.cpu.inst     0.918750                       # mshr miss rate for ReadCleanReq accesses
system.l2.ReadCleanReq_mshr_miss_rate::total     0.918750                       # mshr miss rate for ReadCleanReq accesses
system.l2.ReadCleanReq_avg_mshr_miss_latency::.cpu.inst 69051.020408                       # average ReadCleanReq mshr miss latency
system.l2.ReadCleanReq_avg_mshr_miss_latency::total 69051.020408                       # average ReadCleanReq mshr miss latency
system.l2.ReadSharedReq_hits::.cpu.data            81                       # number of ReadSharedReq hits
system.l2.ReadSharedReq_hits::total                81                       # number of ReadSharedReq hits
system.l2.ReadSharedReq_misses::.cpu.data          286                       # number of ReadSharedReq misses
system.l2.ReadSharedReq_misses::total             286                       # number of ReadSharedReq misses
system.l2.ReadSharedReq_miss_latency::.cpu.data     23798000                       # number of ReadSharedReq miss cycles
system.l2.ReadSharedReq_miss_latency::total     23798000                       # number of ReadSharedReq miss cycles
system.l2.ReadSharedReq_accesses::.cpu.data          367                       # number of ReadSharedReq accesses(hits+misses)
system.l2.ReadSharedReq_accesses::total           367                       # number of ReadSharedReq accesses(hits+misses)
system.l2.ReadSharedReq_miss_rate::.cpu.data     0.779292                       # miss rate for ReadSharedReq accesses
system.l2.ReadSharedReq_miss_rate::total     0.779292                       # miss rate for ReadSharedReq accesses
system.l2.ReadSharedReq_avg_miss_latency::.cpu.data 83209.790210                       # average ReadSharedReq miss latency
system.l2.ReadSharedReq_avg_miss_latency::total 83209.790210                       # average ReadSharedReq miss latency
system.l2.ReadSharedReq_mshr_hits::.cpu.data            6                       # number of ReadSharedReq MSHR hits
system.l2.ReadSharedReq_mshr_hits::total            6                       # number of ReadSharedReq MSHR hits
system.l2.ReadSharedReq_mshr_misses::.cpu.data          280                       # number of ReadSharedReq MSHR misses
system.l2.ReadSharedReq_mshr_misses::total          280                       # number of ReadSharedReq MSHR misses
system.l2.ReadSharedReq_mshr_miss_latency::.cpu.data     20606500                       # number of ReadSharedReq MSHR miss cycles
system.l2.ReadSharedReq_mshr_miss_latency::total     20606500                       # number of ReadSharedReq MSHR miss cycles
system.l2.ReadSharedReq_mshr_miss_rate::.cpu.data     0.762943                       # mshr miss rate for ReadSharedReq accesses
system.l2.ReadSharedReq_mshr_miss_rate::total     0.762943                       # mshr miss rate for ReadSharedReq accesses
system.l2.ReadSharedReq_avg_mshr_miss_latency::.cpu.data 73594.642857                       # average ReadSharedReq mshr miss latency
system.l2.ReadSharedReq_avg_mshr_miss_latency::total 73594.642857                       # average ReadSharedReq mshr miss latency
system.l2.power_state.pwrStateResidencyTicks::UNDEFINED 505713625500                       # Cumulative time (in ticks) in various power states
system.l2.tags.tagsinuse                 32507.826161                       # Cycle average of tags in use
system.l2.tags.total_refs                    10527128                       # Total number of references to valid blocks.
system.l2.tags.sampled_refs                   5263975                       # Sample count of references to valid blocks.
system.l2.tags.avg_refs                      1.999844                       # Average number of references to valid blocks.
system.l2.tags.warmup_cycle                     76000                       # Cycle when the warmup percentage was hit.
system.l2.tags.occ_blocks::.writebacks       0.493696                       # Average occupied blocks per requestor
system.l2.tags.occ_blocks::.cpu.inst         5.244280                       # Average occupied blocks per requestor
system.l2.tags.occ_blocks::.cpu.data     32502.088184                       # Average occupied blocks per requestor
system.l2.tags.occ_percent::.writebacks      0.000015                       # Average percentage of cache occupancy
system.l2.tags.occ_percent::.cpu.inst        0.000160                       # Average percentage of cache occupancy
system.l2.tags.occ_percent::.cpu.data        0.991885                       # Average percentage of cache occupancy
system.l2.tags.occ_percent::total            0.992060                       # Average percentage of cache occupancy
system.l2.tags.occ_task_id_blocks::1024         32768                       # Occupied blocks per task id
system.l2.tags.age_task_id_blocks_1024::0          106                       # Occupied blocks per task id
system.l2.tags.age_task_id_blocks_1024::1          943                       # Occupied blocks per task id
system.l2.tags.age_task_id_blocks_1024::2         9406                       # Occupied blocks per task id
system.l2.tags.age_task_id_blocks_1024::3        22313                       # Occupied blocks per task id
system.l2.tags.occ_task_id_percent::1024            1                       # Percentage of cache occupancy per task id
system.l2.tags.tag_accesses                  89481055                       # Number of tag accesses
system.l2.tags.data_accesses                 89481055                       # Number of data accesses
system.l2.tags.power_state.pwrStateResidencyTicks::UNDEFINED 505713625500                       # Cumulative time (in ticks) in various power states
system.cpu_voltage_domain.voltage                   1                       # Voltage in Volts
system.mem_ctrls.avgPriority_.writebacks::samples   5230284.00                       # Average QoS priority value for accepted requests
system.mem_ctrls.avgPriority_.cpu.inst::samples       588.00                       # Average QoS priority value for accepted requests
system.mem_ctrls.avgPriority_.cpu.data::samples   5263303.00                       # Average QoS priority value for accepted requests
system.mem_ctrls.priorityMinLatency      0.000000017492                       # per QoS priority minimum request to response latency (s)
system.mem_ctrls.priorityMaxLatency      0.000550205652                       # per QoS priority maximum request to response latency (s)
system.mem_ctrls.numReadWriteTurnArounds       326393                       # Number of turnarounds from READ to WRITE
system.mem_ctrls.numWriteReadTurnArounds       326393                       # Number of turnarounds from WRITE to READ
system.mem_ctrls.numStayReadState            15555783                       # Number of times bus staying in READ state
system.mem_ctrls.numStayWriteState            4911620                       # Number of times bus staying in WRITE state
system.mem_ctrls.readReqs                     5263891                       # Number of read requests accepted
system.mem_ctrls.writeReqs                    5230284                       # Number of write requests accepted
system.mem_ctrls.readBursts                   5263891                       # Number of controller read bursts, including those serviced by the write queue
system.mem_ctrls.writeBursts                  5230284                       # Number of controller write bursts, including those merged in the write queue
system.mem_ctrls.servicedByWrQ                      0                       # Number of controller read bursts serviced by the write queue
system.mem_ctrls.mergedWrBursts                     0                       # Number of controller write bursts merged with an existing one
system.mem_ctrls.neitherReadNorWriteReqs            0                       # Number of requests that are neither read nor write
system.mem_ctrls.avgRdQLen                       1.01                       # Average read queue length when enqueuing
system.mem_ctrls.avgWrQLen                      57.39                       # Average write queue length when enqueuing
system.mem_ctrls.numRdRetry                         0                       # Number of times read queue was full causing retry
system.mem_ctrls.numWrRetry                         0                       # Number of times write queue was full causing retry
system.mem_ctrls.readPktSize::0                     0                       # Read request sizes (log2)
system.mem_ctrls.readPktSize::1                     0                       # Read request sizes (log2)
system.mem_ctrls.readPktSize::2                     0                       # Read request sizes (log2)
system.mem_ctrls.readPktSize::3                     0                       # Read request sizes (log2)
system.mem_ctrls.readPktSize::4                     0                       # Read request sizes (log2)
system.mem_ctrls.readPktSize::5                     0                       # Read request sizes (log2)
system.mem_ctrls.readPktSize::6               5263891                       # Read request sizes (log2)
system.mem_ctrls.writePktSize::0                    0                       # Write request sizes (log2)
system.mem_ctrls.writePktSize::1                    0                       # Write request sizes (log2)
system.mem_ctrls.writePktSize::2                    0                       # Write request sizes (log2)
system.mem_ctrls.writePktSize::3                    0                       # Write request sizes (log2)
system.mem_ctrls.writePktSize::4                    0                       # Write request sizes (log2)
system.mem_ctrls.writePktSize::5                    0                       # Write request sizes (log2)
system.mem_ctrls.writePktSize::6              5230284                       # Write request sizes (log2)
system.mem_ctrls.rdQLenPdf::0                 5262926                       # What read queue length does an incoming req see
system.mem_ctrls.rdQLenPdf::1                     938                       # What read queue length does an incoming req see
system.mem_ctrls.rdQLenPdf::2                      24                       # What read queue length does an incoming req see
system.mem_ctrls.rdQLenPdf::3                       3                       # What read queue length does an incoming req see
system.mem_ctrls.rdQLenPdf::4                       0                       # What read queue length does an incoming req see
system.mem_ctrls.rdQLenPdf::5                       0                       # What read queue length does an incoming req see
system.mem_ctrls.rdQLenPdf::6                       0                       # What read queue length does an incoming req see
system.mem_ctrls.rdQLenPdf::7                       0                       # What read queue length does an incoming req see
system.mem_ctrls.rdQLenPdf::8                       0                       # What read queue length does an incoming req see
system.mem_ctrls.rdQLenPdf::9                       0                       # What read queue length does an incoming req see
system.mem_ctrls.rdQLenPdf::10                      0                       # What read queue length does an incoming req see
system.mem_ctrls.rdQLenPdf::11                      0                       # What read queue length does an incoming req see
system.mem_ctrls.rdQLenPdf::12                      0                       # What read queue length does an incoming req see
system.mem_ctrls.rdQLenPdf::13                      0                       # What read queue length does an incoming req see
system.mem_ctrls.rdQLenPdf::14                      0                       # What read queue length does an incoming req see
system.mem_ctrls.rdQLenPdf::15                      0                       # What read queue length does an incoming req see
system.mem_ctrls.rdQLenPdf::16                      0                       # What read queue length does an incoming req see
system.mem_ctrls.rdQLenPdf::17                      0                       # What read queue length does an incoming req see
system.mem_ctrls.rdQLenPdf::18                      0                       # What read queue length does an incoming req see
system.mem_ctrls.rdQLenPdf::19                      0                       # What read queue length does an incoming req see
system.mem_ctrls.rdQLenPdf::20                      0                       # What read queue length does an incoming req see
system.mem_ctrls.rdQLenPdf::21                      0                       # What read queue length does an incoming req see
system.mem_ctrls.rdQLenPdf::22                      0                       # What read queue length does an incoming req see
system.mem_ctrls.rdQLenPdf::23                      0                       # What read queue length does an incoming req see
system.mem_ctrls.rdQLenPdf::24                      0                       # What read queue length does an incoming req see
system.mem_ctrls.rdQLenPdf::25                      0                       # What read queue length does an incoming req see
system.mem_ctrls.rdQLenPdf::26                      0                       # What read queue length does an incoming req see
system.mem_ctrls.rdQLenPdf::27                      0                       # What read queue length does an incoming req see
system.mem_ctrls.rdQLenPdf::28                      0                       # What read queue length does an incoming req see
system.mem_ctrls.rdQLenPdf::29                      0                       # What read queue length does an incoming req see
system.mem_ctrls.rdQLenPdf::30                      0                       # What read queue length does an incoming req see
system.mem_ctrls.rdQLenPdf::31                      0                       # What read queue length does an incoming req see
system.mem_ctrls.rdQLenPdf::32                      0                       # What read queue length does an incoming req see
system.mem_ctrls.rdQLenPdf::33                      0                       # What read queue length does an incoming req see
system.mem_ctrls.rdQLenPdf::34                      0                       # What read queue length does an incoming req see
system.mem_ctrls.rdQLenPdf::35                      0                       # What read queue length does an incoming req see
system.mem_ctrls.rdQLenPdf::36                      0                       # What read queue length does an incoming req see
system.mem_ctrls.rdQLenPdf::37                      0                       # What read queue length does an incoming req see
system.mem_ctrls.rdQLenPdf::38                      0                       # What read queue length does an incoming req see
system.mem_ctrls.rdQLenPdf::39                      0                       # What read queue length does an incoming req see
system.mem_ctrls.rdQLenPdf::40                      0                       # What read queue length does an incoming req see
system.mem_ctrls.rdQLenPdf::41                      0                       # What read queue length does an incoming req see
system.mem_ctrls.rdQLenPdf::42                      0                       # What read queue length does an incoming req see
system.mem_ctrls.rdQLenPdf::43                      0                       # What read queue length does an incoming req see
system.mem_ctrls.rdQLenPdf::44                      0                       # What read queue length does an incoming req see
system.mem_ctrls.rdQLenPdf::45                      0                       # What read queue length does an incoming req see
system.mem_ctrls.rdQLenPdf::46                      0                       # What read queue length does an incoming req see
system.mem_ctrls.rdQLenPdf::47                      0                       # What read queue length does an incoming req see
system.mem_ctrls.rdQLenPdf::48                      0                       # What read queue length does an incoming req see
system.mem_ctrls.rdQLenPdf::49                      0                       # What read queue length does an incoming req see
system.mem_ctrls.rdQLenPdf::50                      0                       # What read queue length does an incoming req see
system.mem_ctrls.rdQLenPdf::51                      0                       # What read queue length does an incoming req see
system.mem_ctrls.rdQLenPdf::52                      0                       # What read queue length does an incoming req see
system.mem_ctrls.rdQLenPdf::53                      0                       # What read queue length does an incoming req see
system.mem_ctrls.rdQLenPdf::54                      0                       # What read queue length does an incoming req see
system.mem_ctrls.rdQLenPdf::55                      0                       # What read queue length does an incoming req see
system.mem_ctrls.rdQLenPdf::56                      0                       # What read queue length does an incoming req see
system.mem_ctrls.rdQLenPdf::57                      0                       # What read queue length does an incoming req see
system.mem_ctrls.rdQLenPdf::58                      0                       # What read queue length does an incoming req see
system.mem_ctrls.rdQLenPdf::59                      0                       # What read queue length does an incoming req see
system.mem_ctrls.rdQLenPdf::60                      0                       # What read queue length does an incoming req see
system.mem_ctrls.rdQLenPdf::61                      0                       # What read queue length does an incoming req see
system.mem_ctrls.rdQLenPdf::62                      0                       # What read queue length does an incoming req see
system.mem_ctrls.rdQLenPdf::63                      0                       # What read queue length does an incoming req see
system.mem_ctrls.wrQLenPdf::0                       1                       # What write queue length does an incoming req see
system.mem_ctrls.wrQLenPdf::1                       1                       # What write queue length does an incoming req see
system.mem_ctrls.wrQLenPdf::2                       1                       # What write queue length does an incoming req see
system.mem_ctrls.wrQLenPdf::3                       1                       # What write queue length does an incoming req see
system.mem_ctrls.wrQLenPdf::4                       1                       # What write queue length does an incoming req see
system.mem_ctrls.wrQLenPdf::5                       1                       # What write queue length does an incoming req see
system.mem_ctrls.wrQLenPdf::6                       1                       # What write queue length does an incoming req see
system.mem_ctrls.wrQLenPdf::7                       1                       # What write queue length does an incoming req see
system.mem_ctrls.wrQLenPdf::8                       1                       # What write queue length does an incoming req see
system.mem_ctrls.wrQLenPdf::9                       1                       # What write queue length does an incoming req see
system.mem_ctrls.wrQLenPdf::10                      1                       # What write queue length does an incoming req see
system.mem_ctrls.wrQLenPdf::11                      1                       # What write queue length does an incoming req see
system.mem_ctrls.wrQLenPdf::12                      1                       # What write queue length does an incoming req see
system.mem_ctrls.wrQLenPdf::13                      1                       # What write queue length does an incoming req see
system.mem_ctrls.wrQLenPdf::14                      1                       # What write queue length does an incoming req see
system.mem_ctrls.wrQLenPdf::15                      1                       # What write queue length does an incoming req see
system.mem_ctrls.wrQLenPdf::16                      1                       # What write queue length does an incoming req see
system.mem_ctrls.wrQLenPdf::17                      1                       # What write queue length does an incoming req see
system.mem_ctrls.wrQLenPdf::18                      1                       # What write queue length does an incoming req see
system.mem_ctrls.wrQLenPdf::19                      1                       # What write queue length does an incoming req see
system.mem_ctrls.wrQLenPdf::20                      1                       # What write queue length does an incoming req see
system.mem_ctrls.wrQLenPdf::21                      1                       # What write queue length does an incoming req see
system.mem_ctrls.wrQLenPdf::22                      1                       # What write queue length does an incoming req see
system.mem_ctrls.wrQLenPdf::23                      1                       # What write queue length does an incoming req see
system.mem_ctrls.wrQLenPdf::24                      1                       # What write queue length does an incoming req see
system.mem_ctrls.wrQLenPdf::25                      1                       # What write queue length does an incoming req see
system.mem_ctrls.wrQLenPdf::26                      1                       # What write queue length does an incoming req see
system.mem_ctrls.wrQLenPdf::27                      1                       # What write queue length does an incoming req see
system.mem_ctrls.wrQLenPdf::28                      1                       # What write queue length does an incoming req see
system.mem_ctrls.wrQLenPdf::29                      1                       # What write queue length does an incoming req see
system.mem_ctrls.wrQLenPdf::30                      1                       # What write queue length does an incoming req see
system.mem_ctrls.wrQLenPdf::31                      1                       # What write queue length does an incoming req see
system.mem_ctrls.wrQLenPdf::32                      1                       # What write queue length does an incoming req see
system.mem_ctrls.wrQLenPdf::33                      1                       # What write queue length does an incoming req see
system.mem_ctrls.wrQLenPdf::34                      1                       # What write queue length does an incoming req see
system.mem_ctrls.wrQLenPdf::35                      1                       # What write queue length does an incoming req see
system.mem_ctrls.wrQLenPdf::36                      1                       # What write queue length does an incoming req see
system.mem_ctrls.wrQLenPdf::37                      1                       # What write queue length does an incoming req see
system.mem_ctrls.wrQLenPdf::38                      1                       # What write queue length does an incoming req see
system.mem_ctrls.wrQLenPdf::39                      1                       # What write queue length does an incoming req see
system.mem_ctrls.wrQLenPdf::40                      1                       # What write queue length does an incoming req see
system.mem_ctrls.wrQLenPdf::41                      1                       # What write queue length does an incoming req see
system.mem_ctrls.wrQLenPdf::42                      1                       # What write queue length does an incoming req see
system.mem_ctrls.wrQLenPdf::43                      1                       # What write queue length does an incoming req see
system.mem_ctrls.wrQLenPdf::44                      1                       # What write queue length does an incoming req see
system.mem_ctrls.wrQLenPdf::45                      1                       # What write queue length does an incoming req see
system.mem_ctrls.wrQLenPdf::46                      1                       # What write queue length does an incoming req see
system.mem_ctrls.wrQLenPdf::47                   3265                       # What write queue length does an incoming req see
system.mem_ctrls.wrQLenPdf::48                   3878                       # What write queue length does an incoming req see
system.mem_ctrls.wrQLenPdf::49                 326026                       # What write queue length does an incoming req see
system.mem_ctrls.wrQLenPdf::50                 326614                       # What write queue length does an incoming req see
system.mem_ctrls.wrQLenPdf::51                 326568                       # What write queue length does an incoming req see
system.mem_ctrls.wrQLenPdf::52                 326514                       # What write queue length does an incoming req see
system.mem_ctrls.wrQLenPdf::53                 326501                       # What write queue length does an incoming req see
system.mem_ctrls.wrQLenPdf::54                 326456                       # What write queue length does an incoming req see
system.mem_ctrls.wrQLenPdf::55                 326498                       # What write queue length does an incoming req see
system.mem_ctrls.wrQLenPdf::56                 326763                       # What write queue length does an incoming req see
system.mem_ctrls.wrQLenPdf::57                 326396                       # What write queue length does an incoming req see
system.mem_ctrls.wrQLenPdf::58                 326394                       # What write queue length does an incoming req see
system.mem_ctrls.wrQLenPdf::59                 326394                       # What write queue length does an incoming req see
system.mem_ctrls.wrQLenPdf::60                 326395                       # What write queue length does an incoming req see
system.mem_ctrls.wrQLenPdf::61                 326394                       # What write queue length does an incoming req see
system.mem_ctrls.wrQLenPdf::62                 326394                       # What write queue length does an incoming req see
system.mem_ctrls.wrQLenPdf::63                 326394                       # What write queue length does an incoming req see
system.mem_ctrls.wrQLenPdf::64                 326393                       # What write queue length does an incoming req see
system.mem_ctrls.wrQLenPdf::65                      0                       # What write queue length does an incoming req see
system.mem_ctrls.wrQLenPdf::66                      0                       # What write queue length does an incoming req see
system.mem_ctrls.wrQLenPdf::67                      0                       # What write queue length does an incoming req see
system.mem_ctrls.wrQLenPdf::68                      0                       # What write queue length does an incoming req see
system.mem_ctrls.wrQLenPdf::69                      0                       # What write queue length does an incoming req see
system.mem_ctrls.wrQLenPdf::70                      0                       # What write queue length does an incoming req see
system.mem_ctrls.wrQLenPdf::71                      0                       # What write queue length does an incoming req see
system.mem_ctrls.wrQLenPdf::72                      0                       # What write queue length does an incoming req see
system.mem_ctrls.wrQLenPdf::73                      0                       # What write queue length does an incoming req see
system.mem_ctrls.wrQLenPdf::74                      0                       # What write queue length does an incoming req see
system.mem_ctrls.wrQLenPdf::75                      0                       # What write queue length does an incoming req see
system.mem_ctrls.wrQLenPdf::76                      0                       # What write queue length does an incoming req see
system.mem_ctrls.wrQLenPdf::77                      0                       # What write queue length does an incoming req see
system.mem_ctrls.wrQLenPdf::78                      0                       # What write queue length does an incoming req see
system.mem_ctrls.wrQLenPdf::79                      0                       # What write queue length does an incoming req see
system.mem_ctrls.wrQLenPdf::80                      0                       # What write queue length does an incoming req see
system.mem_ctrls.wrQLenPdf::81                      0                       # What write queue length does an incoming req see
system.mem_ctrls.wrQLenPdf::82                      0                       # What write queue length does an incoming req see
system.mem_ctrls.wrQLenPdf::83                      0                       # What write queue length does an incoming req see
system.mem_ctrls.wrQLenPdf::84                      0                       # What write queue length does an incoming req see
system.mem_ctrls.wrQLenPdf::85                      0                       # What write queue length does an incoming req see
system.mem_ctrls.wrQLenPdf::86                      0                       # What write queue length does an incoming req see
system.mem_ctrls.wrQLenPdf::87                      0                       # What write queue length does an incoming req see
system.mem_ctrls.wrQLenPdf::88                      0                       # What write queue length does an incoming req see
system.mem_ctrls.wrQLenPdf::89                      0                       # What write queue length does an incoming req see
system.mem_ctrls.wrQLenPdf::90                      0                       # What write queue length does an incoming req see
system.mem_ctrls.wrQLenPdf::91                      0                       # What write queue length does an incoming req see
system.mem_ctrls.wrQLenPdf::92                      0                       # What write queue length does an incoming req see
system.mem_ctrls.wrQLenPdf::93                      0                       # What write queue length does an incoming req see
system.mem_ctrls.wrQLenPdf::94                      0                       # What write queue length does an incoming req see
system.mem_ctrls.wrQLenPdf::95                      0                       # What write queue length does an incoming req see
system.mem_ctrls.wrQLenPdf::96                      0                       # What write queue length does an incoming req see
system.mem_ctrls.wrQLenPdf::97                      0                       # What write queue length does an incoming req see
system.mem_ctrls.wrQLenPdf::98                      0                       # What write queue length does an incoming req see
system.mem_ctrls.wrQLenPdf::99                      0                       # What write queue length does an incoming req see
system.mem_ctrls.wrQLenPdf::100                     0                       # What write queue length does an incoming req see
system.mem_ctrls.wrQLenPdf::101                     0                       # What write queue length does an incoming req see
system.mem_ctrls.wrQLenPdf::102                     0                       # What write queue length does an incoming req see
system.mem_ctrls.wrQLenPdf::103                     0                       # What write queue length does an incoming req see
system.mem_ctrls.wrQLenPdf::104                     0                       # What write queue length does an incoming req see
system.mem_ctrls.wrQLenPdf::105                     0                       # What write queue length does an incoming req see
system.mem_ctrls.wrQLenPdf::106                     0                       # What write queue length does an incoming req see
system.mem_ctrls.wrQLenPdf::107                     0                       # What write queue length does an incoming req see
system.mem_ctrls.wrQLenPdf::108                     0                       # What write queue length does an incoming req see
system.mem_ctrls.wrQLenPdf::109                     0                       # What write queue length does an incoming req see
system.mem_ctrls.wrQLenPdf::110                     0                       # What write queue length does an incoming req see
system.mem_ctrls.wrQLenPdf::111                     0                       # What write queue length does an incoming req see
system.mem_ctrls.wrQLenPdf::112                     0                       # What write queue length does an incoming req see
system.mem_ctrls.wrQLenPdf::113                     0                       # What write queue length does an incoming req see
system.mem_ctrls.wrQLenPdf::114                     0                       # What write queue length does an incoming req see
system.mem_ctrls.wrQLenPdf::115                     0                       # What write queue length does an incoming req see
system.mem_ctrls.wrQLenPdf::116                     0                       # What write queue length does an incoming req see
system.mem_ctrls.wrQLenPdf::117                     0                       # What write queue length does an incoming req see
system.mem_ctrls.wrQLenPdf::118                     0                       # What write queue length does an incoming req see
system.mem_ctrls.wrQLenPdf::119                     0                       # What write queue length does an incoming req see
system.mem_ctrls.wrQLenPdf::120                     0                       # What write queue length does an incoming req see
system.mem_ctrls.wrQLenPdf::121                     0                       # What write queue length does an incoming req see
system.mem_ctrls.wrQLenPdf::122                     0                       # What write queue length does an incoming req see
system.mem_ctrls.wrQLenPdf::123                     0                       # What write queue length does an incoming req see
system.mem_ctrls.wrQLenPdf::124                     0                       # What write queue length does an incoming req see
system.mem_ctrls.wrQLenPdf::125                     0                       # What write queue length does an incoming req see
system.mem_ctrls.wrQLenPdf::126                     0                       # What write queue length does an incoming req see
system.mem_ctrls.wrQLenPdf::127                     0                       # What write queue length does an incoming req see
system.mem_ctrls.rdPerTurnAround::samples       326393                       # Reads before turning the bus around for writes
system.mem_ctrls.rdPerTurnAround::mean      16.127417                       # Reads before turning the bus around for writes
system.mem_ctrls.rdPerTurnAround::gmean     16.026946                       # Reads before turning the bus around for writes
system.mem_ctrls.rdPerTurnAround::stdev     52.381888                       # Reads before turning the bus around for writes
system.mem_ctrls.rdPerTurnAround::0-511        326391    100.00%    100.00% # Reads before turning the bus around for writes
system.mem_ctrls.rdPerTurnAround::1024-1535            1      0.00%    100.00% # Reads before turning the bus around for writes
system.mem_ctrls.rdPerTurnAround::29696-30207            1      0.00%    100.00% # Reads before turning the bus around for writes
system.mem_ctrls.rdPerTurnAround::total        326393                       # Reads before turning the bus around for writes
system.mem_ctrls.wrPerTurnAround::samples       326393                       # Writes before turning the bus around for reads
system.mem_ctrls.wrPerTurnAround::mean      16.024302                       # Writes before turning the bus around for reads
system.mem_ctrls.wrPerTurnAround::gmean     16.022671                       # Writes before turning the bus around for reads
system.mem_ctrls.wrPerTurnAround::stdev      0.239802                       # Writes before turning the bus around for reads
system.mem_ctrls.wrPerTurnAround::16           322922     98.94%     98.94% # Writes before turning the bus around for reads
system.mem_ctrls.wrPerTurnAround::17               64      0.02%     98.96% # Writes before turning the bus around for reads
system.mem_ctrls.wrPerTurnAround::18             2353      0.72%     99.68% # Writes before turning the bus around for reads
system.mem_ctrls.wrPerTurnAround::19             1054      0.32%    100.00% # Writes before turning the bus around for reads
system.mem_ctrls.wrPerTurnAround::total        326393                       # Writes before turning the bus around for reads
system.mem_ctrls.bytesReadWrQ                       0                       # Total number of bytes read from write queue
system.mem_ctrls.bytesReadSys               336889024                       # Total read bytes from the system interface side
system.mem_ctrls.bytesWrittenSys            334738176                       # Total written bytes from the system interface side
system.mem_ctrls.avgRdBWSys                    666.17                       # Average system read bandwidth in MiByte/s
system.mem_ctrls.avgWrBWSys                    661.91                       # Average system write bandwidth in MiByte/s
system.mem_ctrls.totGap                  505713596000                       # Total gap between requests
system.mem_ctrls.avgGap                      48189.93                       # Average gap between requests
system.mem_ctrls.requestorReadBytes::.cpu.inst        37632                       # Per-requestor bytes read from memory
system.mem_ctrls.requestorReadBytes::.cpu.data    336851392                       # Per-requestor bytes read from memory
system.mem_ctrls.requestorWriteBytes::.writebacks    334734080                       # Per-requestor bytes write to memory
system.mem_ctrls.requestorReadRate::.cpu.inst 74413.656469693044                       # Per-requestor bytes read from memory rate (Bytes/sec)
system.mem_ctrls.requestorReadRate::.cpu.data 666091192.751538753510                       # Per-requestor bytes read from memory rate (Bytes/sec)
system.mem_ctrls.requestorWriteRate::.writebacks 661904412.144418358803                       # Per-requestor bytes write to memory rate (Bytes/sec)
system.mem_ctrls.requestorReadAccesses::.cpu.inst          588                       # Per-requestor read serviced memory accesses
system.mem_ctrls.requestorReadAccesses::.cpu.data      5263303                       # Per-requestor read serviced memory accesses
system.mem_ctrls.requestorWriteAccesses::.writebacks      5230284                       # Per-requestor write serviced memory accesses
system.mem_ctrls.requestorReadTotalLat::.cpu.inst     16404356                       # Per-requestor read total memory access latency
system.mem_ctrls.requestorReadTotalLat::.cpu.data 147403433734                       # Per-requestor read total memory access latency
system.mem_ctrls.requestorWriteTotalLat::.writebacks 28358594809508                       # Per-requestor write total memory access latency
system.mem_ctrls.requestorReadAvgLat::.cpu.inst     27898.56                       # Per-requestor read average memory access latency
system.mem_ctrls.requestorReadAvgLat::.cpu.data     28005.88                       # Per-requestor read average memory access latency
system.mem_ctrls.requestorWriteAvgLat::.writebacks   5421999.04                       # Per-requestor write average memory access latency
system.mem_ctrls.dram.bytes_read::.cpu.inst        37632                       # Number of bytes read from this memory
system.mem_ctrls.dram.bytes_read::.cpu.data    336851392                       # Number of bytes read from this memory
system.mem_ctrls.dram.bytes_read::total     336889024                       # Number of bytes read from this memory
system.mem_ctrls.dram.bytes_inst_read::.cpu.inst        37632                       # Number of instructions bytes read from this memory
system.mem_ctrls.dram.bytes_inst_read::total        37632                       # Number of instructions bytes read from this memory
system.mem_ctrls.dram.bytes_written::.writebacks    334738176                       # Number of bytes written to this memory
system.mem_ctrls.dram.bytes_written::total    334738176                       # Number of bytes written to this memory
system.mem_ctrls.dram.num_reads::.cpu.inst          588                       # Number of read requests responded to by this memory
system.mem_ctrls.dram.num_reads::.cpu.data      5263303                       # Number of read requests responded to by this memory
system.mem_ctrls.dram.num_reads::total        5263891                       # Number of read requests responded to by this memory
system.mem_ctrls.dram.num_writes::.writebacks      5230284                       # Number of write requests responded to by this memory
system.mem_ctrls.dram.num_writes::total       5230284                       # Number of write requests responded to by this memory
system.mem_ctrls.dram.bw_read::.cpu.inst        74414                       # Total read bandwidth from this memory (bytes/s)
system.mem_ctrls.dram.bw_read::.cpu.data    666091193                       # Total read bandwidth from this memory (bytes/s)
system.mem_ctrls.dram.bw_read::total        666165606                       # Total read bandwidth from this memory (bytes/s)
system.mem_ctrls.dram.bw_inst_read::.cpu.inst        74414                       # Instruction read bandwidth from this memory (bytes/s)
system.mem_ctrls.dram.bw_inst_read::total        74414                       # Instruction read bandwidth from this memory (bytes/s)
system.mem_ctrls.dram.bw_write::.writebacks    661912512                       # Write bandwidth from this memory (bytes/s)
system.mem_ctrls.dram.bw_write::total       661912512                       # Write bandwidth from this memory (bytes/s)
system.mem_ctrls.dram.bw_total::.writebacks    661912512                       # Total bandwidth to/from this memory (bytes/s)
system.mem_ctrls.dram.bw_total::.cpu.inst        74414                       # Total bandwidth to/from this memory (bytes/s)
system.mem_ctrls.dram.bw_total::.cpu.data    666091193                       # Total bandwidth to/from this memory (bytes/s)
system.mem_ctrls.dram.bw_total::total      1328078118                       # Total bandwidth to/from this memory (bytes/s)
system.mem_ctrls.dram.readBursts              5263891                       # Number of DRAM read bursts
system.mem_ctrls.dram.writeBursts             5230220                       # Number of DRAM write bursts
system.mem_ctrls.dram.perBankRdBursts::0       164401                       # Per bank write bursts
system.mem_ctrls.dram.perBankRdBursts::1       164514                       # Per bank write bursts
system.mem_ctrls.dram.perBankRdBursts::2       164518                       # Per bank write bursts
system.mem_ctrls.dram.perBankRdBursts::3       164615                       # Per bank write bursts
system.mem_ctrls.dram.perBankRdBursts::4       164556                       # Per bank write bursts
system.mem_ctrls.dram.perBankRdBursts::5       164611                       # Per bank write bursts
system.mem_ctrls.dram.perBankRdBursts::6       164615                       # Per bank write bursts
system.mem_ctrls.dram.perBankRdBursts::7       164612                       # Per bank write bursts
system.mem_ctrls.dram.perBankRdBursts::8       164608                       # Per bank write bursts
system.mem_ctrls.dram.perBankRdBursts::9       164626                       # Per bank write bursts
system.mem_ctrls.dram.perBankRdBursts::10       164619                       # Per bank write bursts
system.mem_ctrls.dram.perBankRdBursts::11       164615                       # Per bank write bursts
system.mem_ctrls.dram.perBankRdBursts::12       164612                       # Per bank write bursts
system.mem_ctrls.dram.perBankRdBursts::13       164651                       # Per bank write bursts
system.mem_ctrls.dram.perBankRdBursts::14       164632                       # Per bank write bursts
system.mem_ctrls.dram.perBankRdBursts::15       164578                       # Per bank write bursts
system.mem_ctrls.dram.perBankRdBursts::16       164521                       # Per bank write bursts
system.mem_ctrls.dram.perBankRdBursts::17       164574                       # Per bank write bursts
system.mem_ctrls.dram.perBankRdBursts::18       164541                       # Per bank write bursts
system.mem_ctrls.dram.perBankRdBursts::19       164463                       # Per bank write bursts
system.mem_ctrls.dram.perBankRdBursts::20       164435                       # Per bank write bursts
system.mem_ctrls.dram.perBankRdBursts::21       164466                       # Per bank write bursts
system.mem_ctrls.dram.perBankRdBursts::22       164466                       # Per bank write bursts
system.mem_ctrls.dram.perBankRdBursts::23       164413                       # Per bank write bursts
system.mem_ctrls.dram.perBankRdBursts::24       164294                       # Per bank write bursts
system.mem_ctrls.dram.perBankRdBursts::25       164238                       # Per bank write bursts
system.mem_ctrls.dram.perBankRdBursts::26       164285                       # Per bank write bursts
system.mem_ctrls.dram.perBankRdBursts::27       164307                       # Per bank write bursts
system.mem_ctrls.dram.perBankRdBursts::28       164407                       # Per bank write bursts
system.mem_ctrls.dram.perBankRdBursts::29       164372                       # Per bank write bursts
system.mem_ctrls.dram.perBankRdBursts::30       164361                       # Per bank write bursts
system.mem_ctrls.dram.perBankRdBursts::31       164365                       # Per bank write bursts
system.mem_ctrls.dram.perBankWrBursts::0       163333                       # Per bank write bursts
system.mem_ctrls.dram.perBankWrBursts::1       163409                       # Per bank write bursts
system.mem_ctrls.dram.perBankWrBursts::2       163476                       # Per bank write bursts
system.mem_ctrls.dram.perBankWrBursts::3       163587                       # Per bank write bursts
system.mem_ctrls.dram.perBankWrBursts::4       163526                       # Per bank write bursts
system.mem_ctrls.dram.perBankWrBursts::5       163587                       # Per bank write bursts
system.mem_ctrls.dram.perBankWrBursts::6       163586                       # Per bank write bursts
system.mem_ctrls.dram.perBankWrBursts::7       163588                       # Per bank write bursts
system.mem_ctrls.dram.perBankWrBursts::8       163584                       # Per bank write bursts
system.mem_ctrls.dram.perBankWrBursts::9       163584                       # Per bank write bursts
system.mem_ctrls.dram.perBankWrBursts::10       163584                       # Per bank write bursts
system.mem_ctrls.dram.perBankWrBursts::11       163584                       # Per bank write bursts
system.mem_ctrls.dram.perBankWrBursts::12       163584                       # Per bank write bursts
system.mem_ctrls.dram.perBankWrBursts::13       163584                       # Per bank write bursts
system.mem_ctrls.dram.perBankWrBursts::14       163584                       # Per bank write bursts
system.mem_ctrls.dram.perBankWrBursts::15       163533                       # Per bank write bursts
system.mem_ctrls.dram.perBankWrBursts::16       163456                       # Per bank write bursts
system.mem_ctrls.dram.perBankWrBursts::17       163514                       # Per bank write bursts
system.mem_ctrls.dram.perBankWrBursts::18       163434                       # Per bank write bursts
system.mem_ctrls.dram.perBankWrBursts::19       163419                       # Per bank write bursts
system.mem_ctrls.dram.perBankWrBursts::20       163400                       # Per bank write bursts
system.mem_ctrls.dram.perBankWrBursts::21       163398                       # Per bank write bursts
system.mem_ctrls.dram.perBankWrBursts::22       163400                       # Per bank write bursts
system.mem_ctrls.dram.perBankWrBursts::23       163370                       # Per bank write bursts
system.mem_ctrls.dram.perBankWrBursts::24       163201                       # Per bank write bursts
system.mem_ctrls.dram.perBankWrBursts::25       163200                       # Per bank write bursts
system.mem_ctrls.dram.perBankWrBursts::26       163200                       # Per bank write bursts
system.mem_ctrls.dram.perBankWrBursts::27       163255                       # Per bank write bursts
system.mem_ctrls.dram.perBankWrBursts::28       163329                       # Per bank write bursts
system.mem_ctrls.dram.perBankWrBursts::29       163322                       # Per bank write bursts
system.mem_ctrls.dram.perBankWrBursts::30       163277                       # Per bank write bursts
system.mem_ctrls.dram.perBankWrBursts::31       163332                       # Per bank write bursts
system.mem_ctrls.dram.totQLat             55343856718                       # Total ticks spent queuing
[...]
system.cpu.dcache.ReadReq_hits::.cpu.data      2043764                       # number of ReadReq hits
system.cpu.dcache.ReadReq_hits::total         2043764                       # number of ReadReq hits
system.cpu.dcache.ReadReq_misses::.cpu.data          357                       # number of ReadReq misses
system.cpu.dcache.ReadReq_misses::total           357                       # number of ReadReq misses
system.cpu.dcache.ReadReq_miss_latency::.cpu.data     24930500                       # number of ReadReq miss cycles
system.cpu.dcache.ReadReq_miss_latency::total     24930500                       # number of ReadReq miss cycles
system.cpu.dcache.ReadReq_accesses::.cpu.data      2044121                       # number of ReadReq accesses(hits+misses)
system.cpu.dcache.ReadReq_accesses::total      2044121                       # number of ReadReq accesses(hits+misses)
system.cpu.dcache.ReadReq_miss_rate::.cpu.data     0.000175                       # miss rate for ReadReq accesses
system.cpu.dcache.ReadReq_miss_rate::total     0.000175                       # miss rate for ReadReq accesses
system.cpu.dcache.ReadReq_avg_miss_latency::.cpu.data 69833.333333                       # average ReadReq miss latency
system.cpu.dcache.ReadReq_avg_miss_latency::total 69833.333333                       # average ReadReq miss latency
system.cpu.dcache.ReadReq_mshr_hits::.cpu.data           22                       # number of ReadReq MSHR hits
system.cpu.dcache.ReadReq_mshr_hits::total           22                       # number of ReadReq MSHR hits
system.cpu.dcache.ReadReq_mshr_misses::.cpu.data          335                       # number of ReadReq MSHR misses
system.cpu.dcache.ReadReq_mshr_misses::total          335                       # number of ReadReq MSHR misses
system.cpu.dcache.ReadReq_mshr_miss_latency::.cpu.data     22909000                       # number of ReadReq MSHR miss cycles
system.cpu.dcache.ReadReq_mshr_miss_latency::total     22909000                       # number of ReadReq MSHR miss cycles
system.cpu.dcache.ReadReq_mshr_miss_rate::.cpu.data     0.000164                       # mshr miss rate for ReadReq accesses
system.cpu.dcache.ReadReq_mshr_miss_rate::total     0.000164                       # mshr miss rate for ReadReq accesses
system.cpu.dcache.ReadReq_avg_mshr_miss_latency::.cpu.data 68385.074627                       # average ReadReq mshr miss latency
system.cpu.dcache.ReadReq_avg_mshr_miss_latency::total 68385.074627                       # average ReadReq mshr miss latency
system.cpu.dcache.WriteReq_hits::.cpu.data     73813089                       # number of WriteReq hits
system.cpu.dcache.WriteReq_hits::total       73813089                       # number of WriteReq hits
system.cpu.dcache.WriteReq_misses::.cpu.data     10523529                       # number of WriteReq misses
system.cpu.dcache.WriteReq_misses::total     10523529                       # number of WriteReq misses
system.cpu.dcache.WriteReq_miss_latency::.cpu.data 860508534999                       # number of WriteReq miss cycles
system.cpu.dcache.WriteReq_miss_latency::total 860508534999                       # number of WriteReq miss cycles
system.cpu.dcache.WriteReq_accesses::.cpu.data     84336618                       # number of WriteReq accesses(hits+misses)
system.cpu.dcache.WriteReq_accesses::total     84336618                       # number of WriteReq accesses(hits+misses)
system.cpu.dcache.WriteReq_miss_rate::.cpu.data     0.124780                       # miss rate for WriteReq accesses
system.cpu.dcache.WriteReq_miss_rate::total     0.124780                       # miss rate for WriteReq accesses
system.cpu.dcache.WriteReq_avg_miss_latency::.cpu.data 81769.959013                       # average WriteReq miss latency
system.cpu.dcache.WriteReq_avg_miss_latency::total 81769.959013                       # average WriteReq miss latency
system.cpu.dcache.WriteReq_mshr_hits::.cpu.data      5260465                       # number of WriteReq MSHR hits
system.cpu.dcache.WriteReq_mshr_hits::total      5260465                       # number of WriteReq MSHR hits
system.cpu.dcache.WriteReq_mshr_misses::.cpu.data      5263064                       # number of WriteReq MSHR misses
system.cpu.dcache.WriteReq_mshr_misses::total      5263064                       # number of WriteReq MSHR misses
system.cpu.dcache.WriteReq_mshr_miss_latency::.cpu.data 423791674000                       # number of WriteReq MSHR miss cycles
system.cpu.dcache.WriteReq_mshr_miss_latency::total 423791674000                       # number of WriteReq MSHR miss cycles
system.cpu.dcache.WriteReq_mshr_miss_rate::.cpu.data     0.062405                       # mshr miss rate for WriteReq accesses
system.cpu.dcache.WriteReq_mshr_miss_rate::total     0.062405                       # mshr miss rate for WriteReq accesses
system.cpu.dcache.WriteReq_avg_mshr_miss_latency::.cpu.data 80521.854570                       # average WriteReq mshr miss latency
system.cpu.dcache.WriteReq_avg_mshr_miss_latency::total 80521.854570                       # average WriteReq mshr miss latency
system.cpu.dcache.SoftPFReq_hits::.cpu.data           34                       # number of SoftPFReq hits
system.cpu.dcache.SoftPFReq_hits::total            34                       # number of SoftPFReq hits
system.cpu.dcache.SoftPFReq_misses::.cpu.data           37                       # number of SoftPFReq misses
system.cpu.dcache.SoftPFReq_misses::total           37                       # number of SoftPFReq misses
system.cpu.dcache.SoftPFReq_accesses::.cpu.data           71                       # number of SoftPFReq accesses(hits+misses)
system.cpu.dcache.SoftPFReq_accesses::total           71                       # number of SoftPFReq accesses(hits+misses)
system.cpu.dcache.SoftPFReq_miss_rate::.cpu.data     0.521127                       # miss rate for SoftPFReq accesses
system.cpu.dcache.SoftPFReq_miss_rate::total     0.521127                       # miss rate for SoftPFReq accesses
system.cpu.dcache.SoftPFReq_mshr_misses::.cpu.data           32                       # number of SoftPFReq MSHR misses
system.cpu.dcache.SoftPFReq_mshr_misses::total           32                       # number of SoftPFReq MSHR misses
system.cpu.dcache.SoftPFReq_mshr_miss_latency::.cpu.data      2365000                       # number of SoftPFReq MSHR miss cycles
system.cpu.dcache.SoftPFReq_mshr_miss_latency::total      2365000                       # number of SoftPFReq MSHR miss cycles
system.cpu.dcache.SoftPFReq_mshr_miss_rate::.cpu.data     0.450704                       # mshr miss rate for SoftPFReq accesses
system.cpu.dcache.SoftPFReq_mshr_miss_rate::total     0.450704                       # mshr miss rate for SoftPFReq accesses
system.cpu.dcache.SoftPFReq_avg_mshr_miss_latency::.cpu.data 73906.250000                       # average SoftPFReq mshr miss latency
system.cpu.dcache.SoftPFReq_avg_mshr_miss_latency::total 73906.250000                       # average SoftPFReq mshr miss latency
system.cpu.dcache.LoadLockedReq_hits::.cpu.data           34                       # number of LoadLockedReq hits
system.cpu.dcache.LoadLockedReq_hits::total           34                       # number of LoadLockedReq hits
system.cpu.dcache.LoadLockedReq_accesses::.cpu.data           34                       # number of LoadLockedReq accesses(hits+misses)
system.cpu.dcache.LoadLockedReq_accesses::total           34                       # number of LoadLockedReq accesses(hits+misses)
system.cpu.dcache.StoreCondReq_hits::.cpu.data           34                       # number of StoreCondReq hits
system.cpu.dcache.StoreCondReq_hits::total           34                       # number of StoreCondReq hits
system.cpu.dcache.StoreCondReq_accesses::.cpu.data           34                       # number of StoreCondReq accesses(hits+misses)
system.cpu.dcache.StoreCondReq_accesses::total           34                       # number of StoreCondReq accesses(hits+misses)
system.cpu.dcache.power_state.pwrStateResidencyTicks::UNDEFINED 505713625500                       # Cumulative time (in ticks) in various power states
system.cpu.dcache.tags.tagsinuse           511.933829                       # Cycle average of tags in use
system.cpu.dcache.tags.total_refs            81120385                       # Total number of references to valid blocks.
system.cpu.dcache.tags.sampled_refs           5263430                       # Sample count of references to valid blocks.
system.cpu.dcache.tags.avg_refs             15.412076                       # Average number of references to valid blocks.
system.cpu.dcache.tags.warmup_cycle            174500                       # Cycle when the warmup percentage was hit.
system.cpu.dcache.tags.occ_blocks::.cpu.data   511.933829                       # Average occupied blocks per requestor
system.cpu.dcache.tags.occ_percent::.cpu.data     0.999871                       # Average percentage of cache occupancy
system.cpu.dcache.tags.occ_percent::total     0.999871                       # Average percentage of cache occupancy
system.cpu.dcache.tags.occ_task_id_blocks::1024          512                       # Occupied blocks per task id
system.cpu.dcache.tags.age_task_id_blocks_1024::0          106                       # Occupied blocks per task id
system.cpu.dcache.tags.age_task_id_blocks_1024::1          406                       # Occupied blocks per task id
system.cpu.dcache.tags.occ_task_id_percent::1024            1                       # Percentage of cache occupancy per task id
system.cpu.dcache.tags.tag_accesses         178025186                       # Number of tag accesses
system.cpu.dcache.tags.data_accesses        178025186                       # Number of data accesses
system.cpu.dcache.tags.power_state.pwrStateResidencyTicks::UNDEFINED 505713625500                       # Cumulative time (in ticks) in various power states
system.cpu.power_state.pwrStateResidencyTicks::ON 505713625500                       # Cumulative time (in ticks) in various power states
system.cpu.branchPred.lookups                10658225                       # Number of BP lookups
system.cpu.branchPred.condPredicted          10649997                       # Number of conditional branches predicted
system.cpu.branchPred.condIncorrect              1452                       # Number of conditional branches incorrect
system.cpu.branchPred.BTBLookups             10650203                       # Number of BTB lookups
system.cpu.branchPred.BTBHits                10648849                       # Number of BTB hits
system.cpu.branchPred.BTBHitPct             99.987287                       # BTB Hit Percentage
system.cpu.branchPred.RASUsed                    2711                       # Number of times the RAS was used to get a target.
system.cpu.branchPred.RASIncorrect                  1                       # Number of incorrect RAS predictions.
system.cpu.branchPred.indirectLookups             195                       # Number of indirect predictor lookups.
system.cpu.branchPred.indirectHits                 19                       # Number of indirect target hits.
system.cpu.branchPred.indirectMisses              176                       # Number of indirect misses.
system.cpu.branchPred.indirectMispredicted          105                       # Number of mispredicted indirect branches.
system.cpu.fetch2.intInstructions            45070960                       # Number of integer instructions successfully decoded
system.cpu.fetch2.fpInstructions                    0                       # Number of floating point instructions successfully decoded
system.cpu.fetch2.vecInstructions                   0                       # Number of SIMD instructions successfully decoded
system.cpu.fetch2.loadInstructions            2086385                       # Number of memory load instructions successfully decoded
system.cpu.fetch2.storeInstructions            169110                       # Number of memory store instructions successfully decoded
system.cpu.fetch2.amoInstructions                   0                       # Number of memory atomic instructions successfully decoded
system.cpu.itb.instHits                             0                       # ITB inst hits
system.cpu.itb.instMisses                           0                       # ITB inst misses
system.cpu.itb.readHits                             0                       # DTB read hits
system.cpu.itb.readMisses                           0                       # DTB read misses
system.cpu.itb.writeHits                            0                       # DTB write hits
system.cpu.itb.writeMisses                          0                       # DTB write misses
system.cpu.itb.inserts                              0                       # Number of times an entry is inserted into the TLB
system.cpu.itb.flushTlb                             0                       # Number of times complete TLB was flushed
system.cpu.itb.flushTlbMva                          0                       # Number of times TLB was flushed by MVA
system.cpu.itb.flushTlbMvaAsid                      0                       # Number of times TLB was flushed by MVA & ASID
system.cpu.itb.flushTlbAsid                         0                       # Number of times TLB was flushed by ASID
system.cpu.itb.flushedEntries                       0                       # Number of entries that have been flushed from TLB
system.cpu.itb.alignFaults                          0                       # Number of TLB faults due to alignment restrictions
system.cpu.itb.prefetchFaults                       0                       # Number of TLB faults due to prefetch
system.cpu.itb.domainFaults                         0                       # Number of TLB faults due to domain restrictions
system.cpu.itb.permsFaults                          0                       # Number of TLB faults due to permissions restrictions
system.cpu.itb.readAccesses                         0                       # DTB read accesses
system.cpu.itb.writeAccesses                        0                       # DTB write accesses
system.cpu.itb.instAccesses                         0                       # ITB inst accesses
system.cpu.itb.hits                                 0                       # Total TLB (inst and data) hits
system.cpu.itb.misses                               0                       # Total TLB (inst and data) misses
system.cpu.itb.accesses                             0                       # Total TLB (inst and data) accesses
system.cpu.itb.walker.walks                         0                       # Table walker walks requested
system.cpu.itb.walker.requestOrigin_Requested::Data            0                       # Table walker requests started/completed, data/inst
system.cpu.itb.walker.requestOrigin_Requested::Inst            0                       # Table walker requests started/completed, data/inst
system.cpu.itb.walker.requestOrigin_Requested::total            0                       # Table walker requests started/completed, data/inst
system.cpu.itb.walker.requestOrigin_Completed::Data            0                       # Table walker requests started/completed, data/inst
system.cpu.itb.walker.requestOrigin_Completed::Inst            0                       # Table walker requests started/completed, data/inst
system.cpu.itb.walker.requestOrigin_Completed::total            0                       # Table walker requests started/completed, data/inst
system.cpu.itb.walker.requestOrigin::total            0                       # Table walker requests started/completed, data/inst
system.cpu.itb.walker.power_state.pwrStateResidencyTicks::UNDEFINED 505713625500                       # Cumulative time (in ticks) in various power states
system.cpu.itb.stage2_mmu.stage2_tlb.instHits            0                       # ITB inst hits
system.cpu.itb.stage2_mmu.stage2_tlb.instMisses            0                       # ITB inst misses
system.cpu.itb.stage2_mmu.stage2_tlb.readHits            0                       # DTB read hits
system.cpu.itb.stage2_mmu.stage2_tlb.readMisses            0                       # DTB read misses
system.cpu.itb.stage2_mmu.stage2_tlb.writeHits            0                       # DTB write hits
system.cpu.itb.stage2_mmu.stage2_tlb.writeMisses            0                       # DTB write misses
system.cpu.itb.stage2_mmu.stage2_tlb.inserts            0                       # Number of times an entry is inserted into the TLB
system.cpu.itb.stage2_mmu.stage2_tlb.flushTlb            0                       # Number of times complete TLB was flushed
system.cpu.itb.stage2_mmu.stage2_tlb.flushTlbMva            0                       # Number of times TLB was flushed by MVA
system.cpu.itb.stage2_mmu.stage2_tlb.flushTlbMvaAsid            0                       # Number of times TLB was flushed by MVA & ASID
system.cpu.itb.stage2_mmu.stage2_tlb.flushTlbAsid            0                       # Number of times TLB was flushed by ASID
system.cpu.itb.stage2_mmu.stage2_tlb.flushedEntries            0                       # Number of entries that have been flushed from TLB
system.cpu.itb.stage2_mmu.stage2_tlb.alignFaults            0                       # Number of TLB faults due to alignment restrictions
system.cpu.itb.stage2_mmu.stage2_tlb.prefetchFaults            0                       # Number of TLB faults due to prefetch
system.cpu.itb.stage2_mmu.stage2_tlb.domainFaults            0                       # Number of TLB faults due to domain restrictions
system.cpu.itb.stage2_mmu.stage2_tlb.permsFaults            0                       # Number of TLB faults due to permissions restrictions
system.cpu.itb.stage2_mmu.stage2_tlb.readAccesses            0                       # DTB read accesses
system.cpu.itb.stage2_mmu.stage2_tlb.writeAccesses            0                       # DTB write accesses
system.cpu.itb.stage2_mmu.stage2_tlb.instAccesses            0                       # ITB inst accesses
system.cpu.itb.stage2_mmu.stage2_tlb.hits            0                       # Total TLB (inst and data) hits
system.cpu.itb.stage2_mmu.stage2_tlb.misses            0                       # Total TLB (inst and data) misses
system.cpu.itb.stage2_mmu.stage2_tlb.accesses            0                       # Total TLB (inst and data) accesses
system.cpu.itb.stage2_mmu.stage2_tlb.walker.walks            0                       # Table walker walks requested
system.cpu.itb.stage2_mmu.stage2_tlb.walker.requestOrigin_Requested::Data            0                       # Table walker requests started/completed, data/inst
system.cpu.itb.stage2_mmu.stage2_tlb.walker.requestOrigin_Requested::Inst            0                       # Table walker requests started/completed, data/inst
system.cpu.itb.stage2_mmu.stage2_tlb.walker.requestOrigin_Requested::total            0                       # Table walker requests started/completed, data/inst
system.cpu.itb.stage2_mmu.stage2_tlb.walker.requestOrigin_Completed::Data            0                       # Table walker requests started/completed, data/inst
system.cpu.itb.stage2_mmu.stage2_tlb.walker.requestOrigin_Completed::Inst            0                       # Table walker requests started/completed, data/inst
system.cpu.itb.stage2_mmu.stage2_tlb.walker.requestOrigin_Completed::total            0                       # Table walker requests started/completed, data/inst
system.cpu.itb.stage2_mmu.stage2_tlb.walker.requestOrigin::total            0                       # Table walker requests started/completed, data/inst
system.cpu.itb.stage2_mmu.stage2_tlb.walker.power_state.pwrStateResidencyTicks::UNDEFINED 505713625500                       # Cumulative time (in ticks) in various power states

---------- End Simulation Statistics   ----------
