
---------- Begin Simulation Statistics ----------
final_tick                               125020021500                       # Number of ticks from beginning of simulation (restored from checkpoints and never reset)
host_inst_rate                                 316761                       # Simulator instruction rate (inst/s)
host_mem_usage                                 677116                       # Number of bytes of host memory used
host_op_rate                                   316773                       # Simulator op (including micro ops) rate (op/s)
host_seconds                                   315.70                       # Real time elapsed on the host
host_tick_rate                              396014918                       # Simulator tick rate (ticks/s)
sim_freq                                 1000000000000                       # Frequency of simulated ticks
sim_insts                                   100000000                       # Number of instructions simulated
sim_ops                                     100003630                       # Number of ops (including micro ops) simulated
sim_seconds                                  0.125020                       # Number of seconds simulated
sim_ticks                                125020021500                       # Number of ticks simulated
system.cpu.committedInsts                   100000000                       # Number of instructions committed
system.cpu.committedOps                     100003630                       # Number of ops (including micro ops) committed
system.cpu.cpi                               2.500400                       # CPI: cycles per instruction
system.cpu.discardedOps                         21229                       # Number of ops (including micro ops) which were discarded before commit
system.cpu.idleCycles                       134977022                       # Total number of cycles that the object has spent stopped
system.cpu.ipc                               0.399936                       # IPC: instructions per cycle
system.cpu.numCycles                        250040043                       # number of cpu cycles simulated
system.cpu.numFetchSuspends                         0                       # Number of times Execute suspended instruction fetching
system.cpu.numWorkItemsCompleted                    0                       # number of work items this cpu completed
system.cpu.numWorkItemsStarted                      0                       # number of work items this cpu started
system.cpu.op_class_0::No_OpClass                   0      0.00%      0.00% # Class of committed instruction
system.cpu.op_class_0::IntAlu                49995350     49.99%     49.99% # Class of committed instruction
system.cpu.op_class_0::IntMult                     88      0.00%     49.99% # Class of committed instruction
system.cpu.op_class_0::IntDiv                       0      0.00%     49.99% # Class of committed instruction
system.cpu.op_class_0::FloatAdd                     0      0.00%     49.99% # Class of committed instruction
system.cpu.op_class_0::FloatCmp                     0      0.00%     49.99% # Class of committed instruction
system.cpu.op_class_0::FloatCvt                     0      0.00%     49.99% # Class of committed instruction
system.cpu.op_class_0::FloatMult                    0      0.00%     49.99% # Class of committed instruction
system.cpu.op_class_0::FloatMultAcc                 0      0.00%     49.99% # Class of committed instruction
system.cpu.op_class_0::FloatDiv                     0      0.00%     49.99% # Class of committed instruction
system.cpu.op_class_0::FloatMisc                    0      0.00%     49.99% # Class of committed instruction
system.cpu.op_class_0::FloatSqrt                    0      0.00%     49.99% # Class of committed instruction
system.cpu.op_class_0::SimdAdd                      0      0.00%     49.99% # Class of committed instruction
system.cpu.op_class_0::SimdAddAcc                   0      0.00%     49.99% # Class of committed instruction
system.cpu.op_class_0::SimdAlu                      0      0.00%     49.99% # Class of committed instruction
system.cpu.op_class_0::SimdCmp                      0      0.00%     49.99% # Class of committed instruction
system.cpu.op_class_0::SimdCvt                      0      0.00%     49.99% # Class of committed instruction
system.cpu.op_class_0::SimdMisc                     0      0.00%     49.99% # Class of committed instruction
system.cpu.op_class_0::SimdMult                     0      0.00%     49.99% # Class of committed instruction
system.cpu.op_class_0::SimdMultAcc                  0      0.00%     49.99% # Class of committed instruction
system.cpu.op_class_0::SimdShift                    0      0.00%     49.99% # Class of committed instruction
system.cpu.op_class_0::SimdShiftAcc                 0      0.00%     49.99% # Class of committed instruction
system.cpu.op_class_0::SimdDiv                      0      0.00%     49.99% # Class of committed instruction
system.cpu.op_class_0::SimdSqrt                     0      0.00%     49.99% # Class of committed instruction
system.cpu.op_class_0::SimdFloatAdd                 0      0.00%     49.99% # Class of committed instruction
system.cpu.op_class_0::SimdFloatAlu                 0      0.00%     49.99% # Class of committed instruction
system.cpu.op_class_0::SimdFloatCmp                 2      0.00%     49.99% # Class of committed instruction
system.cpu.op_class_0::SimdFloatCvt                 0      0.00%     49.99% # Class of committed instruction
system.cpu.op_class_0::SimdFloatDiv                 0      0.00%     49.99% # Class of committed instruction
system.cpu.op_class_0::SimdFloatMisc               22      0.00%     49.99% # Class of committed instruction
system.cpu.op_class_0::SimdFloatMult                0      0.00%     49.99% # Class of committed instruction
system.cpu.op_class_0::SimdFloatMultAcc             0      0.00%     49.99% # Class of committed instruction
system.cpu.op_class_0::SimdFloatSqrt                0      0.00%     49.99% # Class of committed instruction
system.cpu.op_class_0::SimdReduceAdd                0      0.00%     49.99% # Class of committed instruction
system.cpu.op_class_0::SimdReduceAlu                0      0.00%     49.99% # Class of committed instruction
system.cpu.op_class_0::SimdReduceCmp                0      0.00%     49.99% # Class of committed instruction
system.cpu.op_class_0::SimdFloatReduceAdd            0      0.00%     49.99% # Class of committed instruction
system.cpu.op_class_0::SimdFloatReduceCmp            0      0.00%     49.99% # Class of committed instruction
system.cpu.op_class_0::SimdAes                      0      0.00%     49.99% # Class of committed instruction
system.cpu.op_class_0::SimdAesMix                   0      0.00%     49.99% # Class of committed instruction
system.cpu.op_class_0::SimdSha1Hash                 0      0.00%     49.99% # Class of committed instruction
system.cpu.op_class_0::SimdSha1Hash2                0      0.00%     49.99% # Class of committed instruction
system.cpu.op_class_0::SimdSha256Hash               0      0.00%     49.99% # Class of committed instruction
system.cpu.op_class_0::SimdSha256Hash2              0      0.00%     49.99% # Class of committed instruction
system.cpu.op_class_0::SimdShaSigma2                0      0.00%     49.99% # Class of committed instruction
system.cpu.op_class_0::SimdShaSigma3                0      0.00%     49.99% # Class of committed instruction
system.cpu.op_class_0::SimdPredAlu                  0      0.00%     49.99% # Class of committed instruction
system.cpu.op_class_0::MemRead               36892285     36.89%     86.88% # Class of committed instruction
system.cpu.op_class_0::MemWrite              13115883     13.12%    100.00% # Class of committed instruction
system.cpu.op_class_0::FloatMemRead                 0      0.00%    100.00% # Class of committed instruction
system.cpu.op_class_0::FloatMemWrite                0      0.00%    100.00% # Class of committed instruction
system.cpu.op_class_0::IprAccess                    0      0.00%    100.00% # Class of committed instruction
system.cpu.op_class_0::InstPrefetch                 0      0.00%    100.00% # Class of committed instruction
system.cpu.op_class_0::total                100003630                       # Class of committed instruction
system.cpu.tickCycles                       115063021                       # Number of cycles that the object actually ticked
system.cpu.workload.numSyscalls                    19                       # Number of system calls
system.membus.snoop_filter.hit_multi_requests            0                       # Number of requests hitting in the snoop filter with multiple (>1) holders of the requested data.
system.membus.snoop_filter.hit_multi_snoops            0                       # Number of snoops hitting in the snoop filter with multiple (>1) holders of the requested data.
system.membus.snoop_filter.hit_single_requests       727576                       # Number of requests hitting in the snoop filter with a single holder of the requested data.
system.membus.snoop_filter.hit_single_snoops            0                       # Number of snoops hitting in the snoop filter with a single holder of the requested data.
system.membus.snoop_filter.tot_requests       1471744                       # Total number of requests made to the snoop filter.
system.membus.snoop_filter.tot_snoops               0                       # Total number of snoops made to the snoop filter.
system.tol2bus.snoop_filter.hit_multi_requests           43                       # Number of requests hitting in the snoop filter with multiple (>1) holders of the requested data.
system.tol2bus.snoop_filter.hit_multi_snoops            1                       # Number of snoops hitting in the snoop filter with multiple (>1) holders of the requested data.
system.tol2bus.snoop_filter.hit_single_requests       743588                       # Number of requests hitting in the snoop filter with a single holder of the requested data.
system.tol2bus.snoop_filter.hit_single_snoops          207                       # Number of snoops hitting in the snoop filter with a single holder of the requested data.
system.tol2bus.snoop_filter.tot_requests      1487893                       # Total number of requests made to the snoop filter.
system.tol2bus.snoop_filter.tot_snoops            208                       # Total number of snoops made to the snoop filter.
system.membus.trans_dist::ReadResp                410                       # Transaction distribution
system.membus.trans_dist::WritebackDirty       727387                       # Transaction distribution
system.membus.trans_dist::CleanEvict              189                       # Transaction distribution
system.membus.trans_dist::ReadExReq            743758                       # Transaction distribution
system.membus.trans_dist::ReadExResp           743758                       # Transaction distribution
system.membus.trans_dist::ReadSharedReq           410                       # Transaction distribution
system.membus.pkt_count_system.l2.mem_side_port::system.mem_ctrls.port      2215912                       # Packet count per connected requestor and responder (bytes)
system.membus.pkt_count::total                2215912                       # Packet count per connected requestor and responder (bytes)
system.membus.pkt_size_system.l2.mem_side_port::system.mem_ctrls.port    188359040                       # Cumulative packet size per connected requestor and responder (bytes)
system.membus.pkt_size::total               188359040                       # Cumulative packet size per connected requestor and responder (bytes)
system.membus.snoops                                0                       # Total snoops (count)
system.membus.snoopTraffic                          0                       # Total snoop traffic (bytes)
system.membus.snoop_fanout::samples            744168                       # Request fanout histogram
system.membus.snoop_fanout::mean                    0                       # Request fanout histogram
system.membus.snoop_fanout::stdev                   0                       # Request fanout histogram
system.membus.snoop_fanout::underflows              0      0.00%      0.00% # Request fanout histogram
system.membus.snoop_fanout::0                  744168    100.00%    100.00% # Request fanout histogram
system.membus.snoop_fanout::1                       0      0.00%    100.00% # Request fanout histogram
system.membus.snoop_fanout::overflows               0      0.00%    100.00% # Request fanout histogram
system.membus.snoop_fanout::min_value               0                       # Request fanout histogram
system.membus.snoop_fanout::max_value               0                       # Request fanout histogram
system.membus.snoop_fanout::total              744168                       # Request fanout histogram
system.membus.reqLayer0.occupancy          7511730500                       # Layer occupancy (ticks)
system.membus.reqLayer0.utilization               6.0                       # Layer utilization (%)
system.membus.respLayer1.occupancy         7058716978                       # Layer occupancy (ticks)
system.membus.respLayer1.utilization              5.6                       # Layer utilization (%)
system.membus.power_state.pwrStateResidencyTicks::UNDEFINED 125020021500                       # Cumulative time (in ticks) in various power states
system.tol2bus.trans_dist::ReadResp               548                       # Transaction distribution
system.tol2bus.trans_dist::WritebackDirty      1470648                       # Transaction distribution
system.tol2bus.trans_dist::WritebackClean          244                       # Transaction distribution
system.tol2bus.trans_dist::CleanEvict             479                       # Transaction distribution
system.tol2bus.trans_dist::ReadExReq           743758                       # Transaction distribution
system.tol2bus.trans_dist::ReadExResp          743758                       # Transaction distribution
system.tol2bus.trans_dist::ReadCleanReq           451                       # Transaction distribution
system.tol2bus.trans_dist::ReadSharedReq           97                       # Transaction distribution
system.tol2bus.pkt_count_system.cpu.icache.mem_side_port::system.l2.cpu_side_port         1146                       # Packet count per connected requestor and responder (bytes)
system.tol2bus.pkt_count_system.cpu.dcache.mem_side_port::system.l2.cpu_side_port      2231053                       # Packet count per connected requestor and responder (bytes)
system.tol2bus.pkt_count::total               2232199                       # Packet count per connected requestor and responder (bytes)
system.tol2bus.pkt_size_system.cpu.icache.mem_side_port::system.l2.cpu_side_port        88960                       # Cumulative packet size per connected requestor and responder (bytes)
system.tol2bus.pkt_size_system.cpu.dcache.mem_side_port::system.l2.cpu_side_port    190350848                       # Cumulative packet size per connected requestor and responder (bytes)
system.tol2bus.pkt_size::total              190439808                       # Cumulative packet size per connected requestor and responder (bytes)
system.tol2bus.snoops                          727784                       # Total snoops (count)
system.tol2bus.snoopTraffic                  93105536                       # Total snoop traffic (bytes)
system.tol2bus.snoop_fanout::samples          1472090                       # Request fanout histogram
system.tol2bus.snoop_fanout::mean            0.000172                       # Request fanout histogram
system.tol2bus.snoop_fanout::stdev           0.013160                       # Request fanout histogram
system.tol2bus.snoop_fanout::underflows             0      0.00%      0.00% # Request fanout histogram
system.tol2bus.snoop_fanout::0                1471838     99.98%     99.98% # Request fanout histogram
system.tol2bus.snoop_fanout::1                    251      0.02%    100.00% # Request fanout histogram
system.tol2bus.snoop_fanout::2                      1      0.00%    100.00% # Request fanout histogram
system.tol2bus.snoop_fanout::overflows              0      0.00%    100.00% # Request fanout histogram
system.tol2bus.snoop_fanout::min_value              0                       # Request fanout histogram
system.tol2bus.snoop_fanout::max_value              2                       # Request fanout histogram
system.tol2bus.snoop_fanout::total            1472090                       # Request fanout histogram
system.tol2bus.reqLayer0.occupancy         2230956500                       # Layer occupancy (ticks)
system.tol2bus.reqLayer0.utilization              1.8                       # Layer utilization (%)
system.tol2bus.respLayer1.occupancy        1859638997                       # Layer occupancy (ticks)
system.tol2bus.respLayer1.utilization             1.5                       # Layer utilization (%)
system.tol2bus.respLayer0.occupancy           1127500                       # Layer occupancy (ticks)
system.tol2bus.respLayer0.utilization             0.0                       # Layer utilization (%)
system.tol2bus.power_state.pwrStateResidencyTicks::UNDEFINED 125020021500                       # Cumulative time (in ticks) in various power states
system.voltage_domain.voltage                       1                       # Voltage in Volts
system.clk_domain.clock                          1000                       # Clock period in ticks
system.l2.demand_hits::.cpu.inst                  116                       # number of demand (read+write) hits
system.l2.demand_hits::.cpu.data                   19                       # number of demand (read+write) hits
system.l2.demand_hits::total                      135                       # number of demand (read+write) hits
system.l2.overall_hits::.cpu.inst                 116                       # number of overall hits
system.l2.overall_hits::.cpu.data                  19                       # number of overall hits
system.l2.overall_hits::total                     135                       # number of overall hits
system.l2.demand_misses::.cpu.inst                335                       # number of demand (read+write) misses
system.l2.demand_misses::.cpu.data             743836                       # number of demand (read+write) misses
system.l2.demand_misses::total                 744171                       # number of demand (read+write) misses
system.l2.overall_misses::.cpu.inst               335                       # number of overall misses
system.l2.overall_misses::.cpu.data            743836                       # number of overall misses
system.l2.overall_misses::total                744171                       # number of overall misses
system.l2.demand_miss_latency::.cpu.inst     26921000                       # number of demand (read+write) miss cycles
system.l2.demand_miss_latency::.cpu.data  65849308500                       # number of demand (read+write) miss cycles
system.l2.demand_miss_latency::total      65876229500                       # number of demand (read+write) miss cycles
system.l2.overall_miss_latency::.cpu.inst     26921000                       # number of overall miss cycles
system.l2.overall_miss_latency::.cpu.data  65849308500                       # number of overall miss cycles
system.l2.overall_miss_latency::total     65876229500                       # number of overall miss cycles
system.l2.demand_accesses::.cpu.inst              451                       # number of demand (read+write) accesses
system.l2.demand_accesses::.cpu.data           743855                       # number of demand (read+write) accesses
system.l2.demand_accesses::total               744306                       # number of demand (read+write) accesses
system.l2.overall_accesses::.cpu.inst             451                       # number of overall (read+write) accesses
system.l2.overall_accesses::.cpu.data          743855                       # number of overall (read+write) accesses
system.l2.overall_accesses::total              744306                       # number of overall (read+write) accesses
system.l2.demand_miss_rate::.cpu.inst        0.742794                       # miss rate for demand accesses
system.l2.demand_miss_rate::.cpu.data        0.999974                       # miss rate for demand accesses
system.l2.demand_miss_rate::total            0.999819                       # miss rate for demand accesses
system.l2.overall_miss_rate::.cpu.inst       0.742794                       # miss rate for overall accesses
system.l2.overall_miss_rate::.cpu.data       0.999974                       # miss rate for overall accesses
system.l2.overall_miss_rate::total           0.999819                       # miss rate for overall accesses
system.l2.demand_avg_miss_latency::.cpu.inst 80361.194030                       # average overall miss latency
system.l2.demand_avg_miss_latency::.cpu.data 88526.649019                       # average overall miss latency
system.l2.demand_avg_miss_latency::total 88522.973214                       # average overall miss latency
system.l2.overall_avg_miss_latency::.cpu.inst 80361.194030                       # average overall miss latency
system.l2.overall_avg_miss_latency::.cpu.data 88526.649019                       # average overall miss latency
system.l2.overall_avg_miss_latency::total 88522.973214                       # average overall miss latency
system.l2.blocked_cycles::no_mshrs                  0                       # number of cycles access was blocked
system.l2.blocked_cycles::no_targets                0                       # number of cycles access was blocked
system.l2.blocked::no_mshrs                         0                       # number of cycles access was blocked
system.l2.blocked::no_targets                       0                       # number of cycles access was blocked
system.l2.avg_blocked_cycles::no_mshrs            nan                       # average number of cycles each access was blocked
system.l2.avg_blocked_cycles::no_targets          nan                       # average number of cycles each access was blocked
system.l2.writebacks::.writebacks              727387                       # number of writebacks
system.l2.writebacks::total                    727387                       # number of writebacks
system.l2.demand_mshr_hits::.cpu.data               3                       # number of demand (read+write) MSHR hits
system.l2.demand_mshr_hits::total                   3                       # number of demand (read+write) MSHR hits
system.l2.overall_mshr_hits::.cpu.data              3                       # number of overall MSHR hits
system.l2.overall_mshr_hits::total                  3                       # number of overall MSHR hits
system.l2.demand_mshr_misses::.cpu.inst           335                       # number of demand (read+write) MSHR misses
system.l2.demand_mshr_misses::.cpu.data        743833                       # number of demand (read+write) MSHR misses
system.l2.demand_mshr_misses::total            744168                       # number of demand (read+write) MSHR misses
system.l2.overall_mshr_misses::.cpu.inst          335                       # number of overall MSHR misses
system.l2.overall_mshr_misses::.cpu.data       743833                       # number of overall MSHR misses
system.l2.overall_mshr_misses::total           744168                       # number of overall MSHR misses
system.l2.demand_mshr_miss_latency::.cpu.inst     23571000                       # number of demand (read+write) MSHR miss cycles
system.l2.demand_mshr_miss_latency::.cpu.data  58410766000                       # number of demand (read+write) MSHR miss cycles
system.l2.demand_mshr_miss_latency::total  58434337000                       # number of demand (read+write) MSHR miss cycles
system.l2.overall_mshr_miss_latency::.cpu.inst     23571000                       # number of overall MSHR miss cycles
system.l2.overall_mshr_miss_latency::.cpu.data  58410766000                       # number of overall MSHR miss cycles
system.l2.overall_mshr_miss_latency::total  58434337000                       # number of overall MSHR miss cycles
system.l2.demand_mshr_miss_rate::.cpu.inst     0.742794                       # mshr miss rate for demand accesses
system.l2.demand_mshr_miss_rate::.cpu.data     0.999970                       # mshr miss rate for demand accesses
system.l2.demand_mshr_miss_rate::total       0.999815                       # mshr miss rate for demand accesses
system.l2.overall_mshr_miss_rate::.cpu.inst     0.742794                       # mshr miss rate for overall accesses
system.l2.overall_mshr_miss_rate::.cpu.data     0.999970                       # mshr miss rate for overall accesses
system.l2.overall_mshr_miss_rate::total      0.999815                       # mshr miss rate for overall accesses
system.l2.demand_avg_mshr_miss_latency::.cpu.inst 70361.194030                       # average overall mshr miss latency
system.l2.demand_avg_mshr_miss_latency::.cpu.data 78526.720379                       # average overall mshr miss latency
system.l2.demand_avg_mshr_miss_latency::total 78523.044528                       # average overall mshr miss latency
system.l2.overall_avg_mshr_miss_latency::.cpu.inst 70361.194030                       # average overall mshr miss latency
system.l2.overall_avg_mshr_miss_latency::.cpu.data 78526.720379                       # average overall mshr miss latency
system.l2.overall_avg_mshr_miss_latency::total 78523.044528                       # average overall mshr miss latency
system.l2.replacements                         727784                       # number of replacements
system.l2.WritebackDirty_hits::.writebacks       743261                       # number of WritebackDirty hits
system.l2.WritebackDirty_hits::total           743261                       # number of WritebackDirty hits
system.l2.WritebackDirty_accesses::.writebacks       743261                       # number of WritebackDirty accesses(hits+misses)
system.l2.WritebackDirty_accesses::total       743261                       # number of WritebackDirty accesses(hits+misses)
system.l2.WritebackClean_hits::.writebacks          216                       # number of WritebackClean hits
system.l2.WritebackClean_hits::total              216                       # number of WritebackClean hits
system.l2.WritebackClean_accesses::.writebacks          216                       # number of WritebackClean accesses(hits+misses)
system.l2.WritebackClean_accesses::total          216                       # number of WritebackClean accesses(hits+misses)
system.l2.ReadExReq_misses::.cpu.data          743758                       # number of ReadExReq misses
system.l2.ReadExReq_misses::total              743758                       # number of ReadExReq misses
system.l2.ReadExReq_miss_latency::.cpu.data  65842251500                       # number of ReadExReq miss cycles
system.l2.ReadExReq_miss_latency::total   65842251500                       # number of ReadExReq miss cycles
system.l2.ReadExReq_accesses::.cpu.data        743758                       # number of ReadExReq accesses(hits+misses)
system.l2.ReadExReq_accesses::total            743758                       # number of ReadExReq accesses(hits+misses)
system.l2.ReadExReq_miss_rate::.cpu.data            1                       # miss rate for ReadExReq accesses
system.l2.ReadExReq_miss_rate::total                1                       # miss rate for ReadExReq accesses
system.l2.ReadExReq_avg_miss_latency::.cpu.data 88526.444758                       # average ReadExReq miss latency
system.l2.ReadExReq_avg_miss_latency::total 88526.444758                       # average ReadExReq miss latency
system.l2.ReadExReq_mshr_misses::.cpu.data       743758                       # number of ReadExReq MSHR misses
system.l2.ReadExReq_mshr_misses::total         743758                       # number of ReadExReq MSHR misses
system.l2.ReadExReq_mshr_miss_latency::.cpu.data  58404671500                       # number of ReadExReq MSHR miss cycles
system.l2.ReadExReq_mshr_miss_latency::total  58404671500                       # number of ReadExReq MSHR miss cycles
system.l2.ReadExReq_mshr_miss_rate::.cpu.data            1                       # mshr miss rate for ReadExReq accesses
system.l2.ReadExReq_mshr_miss_rate::total            1                       # mshr miss rate for ReadExReq accesses
system.l2.ReadExReq_avg_mshr_miss_latency::.cpu.data 78526.444758                       # average ReadExReq mshr miss latency
system.l2.ReadExReq_avg_mshr_miss_latency::total 78526.444758                       # average ReadExReq mshr miss latency
system.l2.ReadCleanReq_hits::.cpu.inst            116                       # number of ReadCleanReq hits
system.l2.ReadCleanReq_hits::total                116                       # number of ReadCleanReq hits
system.l2.ReadCleanReq_misses::.cpu.inst          335                       # number of ReadCleanReq misses
system.l2.ReadCleanReq_misses::total              335                       # number of ReadCleanReq misses
system.l2.ReadCleanReq_miss_latency::.cpu.inst     26921000                       # number of ReadCleanReq miss cycles
system.l2.ReadCleanReq_miss_latency::total     26921000                       # number of ReadCleanReq miss cycles
system.l2.ReadCleanReq_accesses::.cpu.inst          451                       # number of ReadCleanReq accesses(hits+misses)
system.l2.ReadCleanReq_accesses::total            451                       # number of ReadCleanReq accesses(hits+misses)
system.l2.ReadCleanReq_miss_rate::.cpu.inst     0.742794                       # miss rate for ReadCleanReq accesses
system.l2.ReadCleanReq_miss_rate::total      0.742794                       # miss rate for ReadCleanReq accesses
system.l2.ReadCleanReq_avg_miss_latency::.cpu.inst 80361.194030                       # average ReadCleanReq miss latency
system.l2.ReadCleanReq_avg_miss_latency::total 80361.194030                       # average ReadCleanReq miss latency
system.l2.ReadCleanReq_mshr_misses::.cpu.inst          335                       # number of ReadCleanReq MSHR misses
system.l2.ReadCleanReq_mshr_misses::total          335                       # number of ReadCleanReq MSHR misses
system.l2.ReadCleanReq_mshr_miss_latency::.cpu.inst     23571000                       # number of ReadCleanReq MSHR miss cycles
system.l2.ReadCleanReq_mshr_miss_latency::total     23571000                       # number of ReadCleanReq MSHR miss cycles
system.l2.ReadCleanReq_mshr_miss_rate::.cpu.inst     0.742794                       # mshr miss rate for ReadCleanReq accesses
system.l2.ReadCleanReq_mshr_miss_rate::total     0.742794                       # mshr miss rate for ReadCleanReq accesses
system.l2.ReadCleanReq_avg_mshr_miss_latency::.cpu.inst 70361.194030                       # average ReadCleanReq mshr miss latency
system.l2.ReadCleanReq_avg_mshr_miss_latency::total 70361.194030                       # average ReadCleanReq mshr miss latency
system.l2.ReadSharedReq_hits::.cpu.data            19                       # number of ReadSharedReq hits
system.l2.ReadSharedReq_hits::total                19                       # number of ReadSharedReq hits
system.l2.ReadSharedReq_misses::.cpu.data           78                       # number of ReadSharedReq misses
system.l2.ReadSharedReq_misses::total              78                       # number of ReadSharedReq misses
system.l2.ReadSharedReq_miss_latency::.cpu.data      7057000                       # number of ReadSharedReq miss cycles
system.l2.ReadSharedReq_miss_latency::total      7057000                       # number of ReadSharedReq miss cycles
system.l2.ReadSharedReq_accesses::.cpu.data           97                       # number of ReadSharedReq accesses(hits+misses)
system.l2.ReadSharedReq_accesses::total            97                       # number of ReadSharedReq accesses(hits+misses)
system.l2.ReadSharedReq_miss_rate::.cpu.data     0.804124                       # miss rate for ReadSharedReq accesses
system.l2.ReadSharedReq_miss_rate::total     0.804124                       # miss rate for ReadSharedReq accesses
system.l2.ReadSharedReq_avg_miss_latency::.cpu.data 90474.358974                       # average ReadSharedReq miss latency
system.l2.ReadSharedReq_avg_miss_latency::total 90474.358974                       # average ReadSharedReq miss latency
system.l2.ReadSharedReq_mshr_hits::.cpu.data            3                       # number of ReadSharedReq MSHR hits
system.l2.ReadSharedReq_mshr_hits::total            3                       # number of ReadSharedReq MSHR hits
system.l2.ReadSharedReq_mshr_misses::.cpu.data           75                       # number of ReadSharedReq MSHR misses
system.l2.ReadSharedReq_mshr_misses::total           75                       # number of ReadSharedReq MSHR misses
system.l2.ReadSharedReq_mshr_miss_latency::.cpu.data      6094500                       # number of ReadSharedReq MSHR miss cycles
system.l2.ReadSharedReq_mshr_miss_latency::total      6094500                       # number of ReadSharedReq MSHR miss cycles
system.l2.ReadSharedReq_mshr_miss_rate::.cpu.data     0.773196                       # mshr miss rate for ReadSharedReq accesses
system.l2.ReadSharedReq_mshr_miss_rate::total     0.773196                       # mshr miss rate for ReadSharedReq accesses
system.l2.ReadSharedReq_avg_mshr_miss_latency::.cpu.data        81260                       # average ReadSharedReq mshr miss latency
system.l2.ReadSharedReq_avg_mshr_miss_latency::total        81260                       # average ReadSharedReq mshr miss latency
system.l2.power_state.pwrStateResidencyTicks::UNDEFINED 125020021500                       # Cumulative time (in ticks) in various power states
system.l2.tags.tagsinuse                 16212.670967                       # Cycle average of tags in use
system.l2.tags.total_refs                     1487847                       # Total number of references to valid blocks.
system.l2.tags.sampled_refs                    744168                       # Sample count of references to valid blocks.
system.l2.tags.avg_refs                      1.999343                       # Average number of references to valid blocks.
system.l2.tags.warmup_cycle                     81000                       # Cycle when the warmup percentage was hit.
system.l2.tags.occ_blocks::.cpu.inst         6.748617                       # Average occupied blocks per requestor
system.l2.tags.occ_blocks::.cpu.data     16205.922350                       # Average occupied blocks per requestor
system.l2.tags.occ_percent::.cpu.inst        0.000412                       # Average percentage of cache occupancy
system.l2.tags.occ_percent::.cpu.data        0.989131                       # Average percentage of cache occupancy
system.l2.tags.occ_percent::total            0.989543                       # Average percentage of cache occupancy
system.l2.tags.occ_task_id_blocks::1024         16384                       # Occupied blocks per task id
system.l2.tags.age_task_id_blocks_1024::0           61                       # Occupied blocks per task id
system.l2.tags.age_task_id_blocks_1024::1          534                       # Occupied blocks per task id
system.l2.tags.age_task_id_blocks_1024::2         5349                       # Occupied blocks per task id
system.l2.tags.age_task_id_blocks_1024::3        10440                       # Occupied blocks per task id
system.l2.tags.occ_task_id_percent::1024            1                       # Percentage of cache occupancy per task id
system.l2.tags.tag_accesses                  12646968                       # Number of tag accesses
system.l2.tags.data_accesses                 12646968                       # Number of data accesses
system.l2.tags.power_state.pwrStateResidencyTicks::UNDEFINED 125020021500                       # Cumulative time (in ticks) in various power states
system.cpu_voltage_domain.voltage                   1                       # Voltage in Volts
system.mem_ctrls.avgPriority_.writebacks::samples   1454774.00                       # Average QoS priority value for accepted requests
system.mem_ctrls.avgPriority_.cpu.inst::samples       670.00                       # Average QoS priority value for accepted requests
system.mem_ctrls.avgPriority_.cpu.data::samples   1487666.00                       # Average QoS priority value for accepted requests
system.mem_ctrls.priorityMinLatency      0.000000017492                       # per QoS priority minimum request to response latency (s)
system.mem_ctrls.priorityMaxLatency      0.000080056156                       # per QoS priority maximum request to response latency (s)
system.mem_ctrls.numReadWriteTurnArounds        80875                       # Number of turnarounds from READ to WRITE
system.mem_ctrls.numWriteReadTurnArounds        80875                       # Number of turnarounds from WRITE to READ
system.mem_ctrls.numStayReadState             2976876                       # Number of times bus staying in READ state
system.mem_ctrls.numStayWriteState            1376206                       # Number of times bus staying in WRITE state
system.mem_ctrls.readReqs                      744168                       # Number of read requests accepted
system.mem_ctrls.writeReqs                     727387                       # Number of write requests accepted
system.mem_ctrls.readBursts                   1488336                       # Number of controller read bursts, including those serviced by the write queue
system.mem_ctrls.writeBursts                  1454774                       # Number of controller write bursts, including those merged in the write queue
system.mem_ctrls.servicedByWrQ                      0                       # Number of controller read bursts serviced by the write queue
system.mem_ctrls.mergedWrBursts                     0                       # Number of controller write bursts merged with an existing one
system.mem_ctrls.neitherReadNorWriteReqs            0                       # Number of requests that are neither read nor write
system.mem_ctrls.avgRdQLen                       2.00                       # Average read queue length when enqueuing
system.mem_ctrls.avgWrQLen                      56.16                       # Average write queue length when enqueuing
system.mem_ctrls.numRdRetry                         0                       # Number of times read queue was full causing retry
system.mem_ctrls.numWrRetry                         0                       # Number of times write queue was full causing retry
system.mem_ctrls.readPktSize::0                     0                       # Read request sizes (log2)
system.mem_ctrls.readPktSize::1                     0                       # Read request sizes (log2)
system.mem_ctrls.readPktSize::2                     0                       # Read request sizes (log2)
system.mem_ctrls.readPktSize::3                     0                       # Read request sizes (log2)
system.mem_ctrls.readPktSize::4                     0                       # Read request sizes (log2)
system.mem_ctrls.readPktSize::5                     0                       # Read request sizes (log2)
system.mem_ctrls.readPktSize::6               1488336                       # Read request sizes (log2)
system.mem_ctrls.readPktSize::7                     0                       # Read request sizes (log2)
system.mem_ctrls.writePktSize::0                    0                       # Write request sizes (log2)
system.mem_ctrls.writePktSize::1                    0                       # Write request sizes (log2)
system.mem_ctrls.writePktSize::2                    0                       # Write request sizes (log2)
system.mem_ctrls.writePktSize::3                    0                       # Write request sizes (log2)
system.mem_ctrls.writePktSize::4                    0                       # Write request sizes (log2)
system.mem_ctrls.writePktSize::5                    0                       # Write request sizes (log2)
system.mem_ctrls.writePktSize::6              1454774                       # Write request sizes (log2)
system.mem_ctrls.writePktSize::7                    0                       # Write request sizes (log2)
system.mem_ctrls.rdQLenPdf::0                  744111                       # What read queue length does an incoming req see
system.mem_ctrls.rdQLenPdf::1                  744113                       # What read queue length does an incoming req see
system.mem_ctrls.rdQLenPdf::2                      53                       # What read queue length does an incoming req see
system.mem_ctrls.rdQLenPdf::3                      51                       # What read queue length does an incoming req see
system.mem_ctrls.rdQLenPdf::4                       4                       # What read queue length does an incoming req see
system.mem_ctrls.rdQLenPdf::5                       4                       # What read queue length does an incoming req see
system.mem_ctrls.rdQLenPdf::6                       0                       # What read queue length does an incoming req see
system.mem_ctrls.rdQLenPdf::7                       0                       # What read queue length does an incoming req see
system.mem_ctrls.rdQLenPdf::8                       0                       # What read queue length does an incoming req see
system.mem_ctrls.rdQLenPdf::9                       0                       # What read queue length does an incoming req see
system.mem_ctrls.rdQLenPdf::10                      0                       # What read queue length does an incoming req see
system.mem_ctrls.rdQLenPdf::11                      0                       # What read queue length does an incoming req see
system.mem_ctrls.rdQLenPdf::12                      0                       # What read queue length does an incoming req see
system.mem_ctrls.rdQLenPdf::13                      0                       # What read queue length does an incoming req see
system.mem_ctrls.rdQLenPdf::14                      0                       # What read queue length does an incoming req see
system.mem_ctrls.rdQLenPdf::15                      0                       # What read queue length does an incoming req see
system.mem_ctrls.rdQLenPdf::16                      0                       # What read queue length does an incoming req see
system.mem_ctrls.rdQLenPdf::17                      0                       # What read queue length does an incoming req see
system.mem_ctrls.rdQLenPdf::18                      0                       # What read queue length does an incoming req see
system.mem_ctrls.rdQLenPdf::19                      0                       # What read queue length does an incoming req see
system.mem_ctrls.rdQLenPdf::20                      0                       # What read queue length does an incoming req see
system.mem_ctrls.rdQLenPdf::21                      0                       # What read queue length does an incoming req see
system.mem_ctrls.rdQLenPdf::22                      0                       # What read queue length does an incoming req see
system.mem_ctrls.rdQLenPdf::23                      0                       # What read queue length does an incoming req see
system.mem_ctrls.rdQLenPdf::24                      0                       # What read queue length does an incoming req see
system.mem_ctrls.rdQLenPdf::25                      0                       # What read queue length does an incoming req see
system.mem_ctrls.rdQLenPdf::26                      0                       # What read queue length does an incoming req see
system.mem_ctrls.rdQLenPdf::27                      0                       # What read queue length does an incoming req see
system.mem_ctrls.rdQLenPdf::28                      0                       # What read queue length does an incoming req see
system.mem_ctrls.rdQLenPdf::29                      0                       # What read queue length does an incoming req see
system.mem_ctrls.rdQLenPdf::30                      0                       # What read queue length does an incoming req see
system.mem_ctrls.rdQLenPdf::31                      0                       # What read queue length does an incoming req see
system.mem_ctrls.rdQLenPdf::32                      0                       # What read queue length does an incoming req see
system.mem_ctrls.rdQLenPdf::33                      0                       # What read queue length does an incoming req see
system.mem_ctrls.rdQLenPdf::34                      0                       # What read queue length does an incoming req see
system.mem_ctrls.rdQLenPdf::35                      0                       # What read queue length does an incoming req see
system.mem_ctrls.rdQLenPdf::36                      0                       # What read queue length does an incoming req see
system.mem_ctrls.rdQLenPdf::37                      0                       # What read queue length does an incoming req see
system.mem_ctrls.rdQLenPdf::38                      0                       # What read queue length does an incoming req see
system.mem_ctrls.rdQLenPdf::39                      0                       # What read queue length does an incoming req see
system.mem_ctrls.rdQLenPdf::40                      0                       # What read queue length does an incoming req see
system.mem_ctrls.rdQLenPdf::41                      0                       # What read queue length does an incoming req see
system.mem_ctrls.rdQLenPdf::42                      0                       # What read queue length does an incoming req see
system.mem_ctrls.rdQLenPdf::43                      0                       # What read queue length does an incoming req see
system.mem_ctrls.rdQLenPdf::44                      0                       # What read queue length does an incoming req see
system.mem_ctrls.rdQLenPdf::45                      0                       # What read queue length does an incoming req see
system.mem_ctrls.rdQLenPdf::46                      0                       # What read queue length does an incoming req see
system.mem_ctrls.rdQLenPdf::47                      0                       # What read queue length does an incoming req see
system.mem_ctrls.rdQLenPdf::48                      0                       # What read queue length does an incoming req see
system.mem_ctrls.rdQLenPdf::49                      0                       # What read queue length does an incoming req see
system.mem_ctrls.rdQLenPdf::50                      0                       # What read queue length does an incoming req see
system.mem_ctrls.rdQLenPdf::51                      0                       # What read queue length does an incoming req see
system.mem_ctrls.rdQLenPdf::52                      0                       # What read queue length does an incoming req see
system.mem_ctrls.rdQLenPdf::53                      0                       # What read queue length does an incoming req see
system.mem_ctrls.rdQLenPdf::54                      0                       # What read queue length does an incoming req see
system.mem_ctrls.rdQLenPdf::55                      0                       # What read queue length does an incoming req see
system.mem_ctrls.rdQLenPdf::56                      0                       # What read queue length does an incoming req see
system.mem_ctrls.rdQLenPdf::57                      0                       # What read queue length does an incoming req see
system.mem_ctrls.rdQLenPdf::58                      0                       # What read queue length does an incoming req see
system.mem_ctrls.rdQLenPdf::59                      0                       # What read queue length does an incoming req see
system.mem_ctrls.rdQLenPdf::60                      0                       # What read queue length does an incoming req see
system.mem_ctrls.rdQLenPdf::61                      0                       # What read queue length does an incoming req see
system.mem_ctrls.rdQLenPdf::62                      0                       # What read queue length does an incoming req see
system.mem_ctrls.rdQLenPdf::63                      0                       # What read queue length does an incoming req see
system.mem_ctrls.wrQLenPdf::0                       1                       # What write queue length does an incoming req see
system.mem_ctrls.wrQLenPdf::1                       1                       # What write queue length does an incoming req see
system.mem_ctrls.wrQLenPdf::2                       1                       # What write queue length does an incoming req see
system.mem_ctrls.wrQLenPdf::3                       1                       # What write queue length does an incoming req see
system.mem_ctrls.wrQLenPdf::4                       1                       # What write queue length does an incoming req see
system.mem_ctrls.wrQLenPdf::5                       1                       # What write queue length does an incoming req see
system.mem_ctrls.wrQLenPdf::6                       1                       # What write queue length does an incoming req see
system.mem_ctrls.wrQLenPdf::7                       1                       # What write queue length does an incoming req see
system.mem_ctrls.wrQLenPdf::8                       1                       # What write queue length does an incoming req see
system.mem_ctrls.wrQLenPdf::9                       1                       # What write queue length does an incoming req see
system.mem_ctrls.wrQLenPdf::10                      1                       # What write queue length does an incoming req see
system.mem_ctrls.wrQLenPdf::11                      1                       # What write queue length does an incoming req see
system.mem_ctrls.wrQLenPdf::12                      1                       # What write queue length does an incoming req see
system.mem_ctrls.wrQLenPdf::13                      1                       # What write queue length does an incoming req see
system.mem_ctrls.wrQLenPdf::14                      1                       # What write queue length does an incoming req see
system.mem_ctrls.wrQLenPdf::15                      1                       # What write queue length does an incoming req see
system.mem_ctrls.wrQLenPdf::16                      1                       # What write queue length does an incoming req see
system.mem_ctrls.wrQLenPdf::17                      1                       # What write queue length does an incoming req see
system.mem_ctrls.wrQLenPdf::18                      1                       # What write queue length does an incoming req see
system.mem_ctrls.wrQLenPdf::19                      1                       # What write queue length does an incoming req see
system.mem_ctrls.wrQLenPdf::20                      1                       # What write queue length does an incoming req see
system.mem_ctrls.wrQLenPdf::21                      1                       # What write queue length does an incoming req see
system.mem_ctrls.wrQLenPdf::22                      1                       # What write queue length does an incoming req see
system.mem_ctrls.wrQLenPdf::23                      1                       # What write queue length does an incoming req see
system.mem_ctrls.wrQLenPdf::24                      1                       # What write queue length does an incoming req see
system.mem_ctrls.wrQLenPdf::25                      1                       # What write queue length does an incoming req see
system.mem_ctrls.wrQLenPdf::26                      1                       # What write queue length does an incoming req see
system.mem_ctrls.wrQLenPdf::27                      1                       # What write queue length does an incoming req see
system.mem_ctrls.wrQLenPdf::28                      1                       # What write queue length does an incoming req see
system.mem_ctrls.wrQLenPdf::29                      1                       # What write queue length does an incoming req see
system.mem_ctrls.wrQLenPdf::30                      1                       # What write queue length does an incoming req see
system.mem_ctrls.wrQLenPdf::31                      1                       # What write queue length does an incoming req see
system.mem_ctrls.wrQLenPdf::32                      1                       # What write queue length does an incoming req see
system.mem_ctrls.wrQLenPdf::33                      1                       # What write queue length does an incoming req see
system.mem_ctrls.wrQLenPdf::34                      1                       # What write queue length does an incoming req see
system.mem_ctrls.wrQLenPdf::35                      1                       # What write queue length does an incoming req see
system.mem_ctrls.wrQLenPdf::36                      1                       # What write queue length does an incoming req see
system.mem_ctrls.wrQLenPdf::37                      1                       # What write queue length does an incoming req see
system.mem_ctrls.wrQLenPdf::38                      1                       # What write queue length does an incoming req see
system.mem_ctrls.wrQLenPdf::39                      1                       # What write queue length does an incoming req see
system.mem_ctrls.wrQLenPdf::40                      1                       # What write queue length does an incoming req see
system.mem_ctrls.wrQLenPdf::41                      1                       # What write queue length does an incoming req see
system.mem_ctrls.wrQLenPdf::42                      1                       # What write queue length does an incoming req see
system.mem_ctrls.wrQLenPdf::43                      1                       # What write queue length does an incoming req see
system.mem_ctrls.wrQLenPdf::44                      1                       # What write queue length does an incoming req see
system.mem_ctrls.wrQLenPdf::45                      1                       # What write queue length does an incoming req see
system.mem_ctrls.wrQLenPdf::46                      1                       # What write queue length does an incoming req see
system.mem_ctrls.wrQLenPdf::47                  80010                       # What write queue length does an incoming req see
system.mem_ctrls.wrQLenPdf::48                  80012                       # What write queue length does an incoming req see
system.mem_ctrls.wrQLenPdf::49                  81072                       # What write queue length does an incoming req see
system.mem_ctrls.wrQLenPdf::50                  81070                       # What write queue length does an incoming req see
system.mem_ctrls.wrQLenPdf::51                  80875                       # What write queue length does an incoming req see
system.mem_ctrls.wrQLenPdf::52                  80875                       # What write queue length does an incoming req see
system.mem_ctrls.wrQLenPdf::53                  80875                       # What write queue length does an incoming req see
system.mem_ctrls.wrQLenPdf::54                  80875                       # What write queue length does an incoming req see
system.mem_ctrls.wrQLenPdf::55                  81031                       # What write queue length does an incoming req see
system.mem_ctrls.wrQLenPdf::56                  81031                       # What write queue length does an incoming req see
system.mem_ctrls.wrQLenPdf::57                  80875                       # What write queue length does an incoming req see
system.mem_ctrls.wrQLenPdf::58                  80875                       # What write queue length does an incoming req see
system.mem_ctrls.wrQLenPdf::59                  80875                       # What write queue length does an incoming req see
system.mem_ctrls.wrQLenPdf::60                  80875                       # What write queue length does an incoming req see
system.mem_ctrls.wrQLenPdf::61                  80875                       # What write queue length does an incoming req see
system.mem_ctrls.wrQLenPdf::62                  80875                       # What write queue length does an incoming req see
system.mem_ctrls.wrQLenPdf::63                  80875                       # What write queue length does an incoming req see
system.mem_ctrls.wrQLenPdf::64                  80875                       # What write queue length does an incoming req see
system.mem_ctrls.wrQLenPdf::65                      1                       # What write queue length does an incoming req see
system.mem_ctrls.wrQLenPdf::66                      0                       # What write queue length does an incoming req see
system.mem_ctrls.wrQLenPdf::67                      0                       # What write queue length does an incoming req see
system.mem_ctrls.wrQLenPdf::68                      0                       # What write queue length does an incoming req see
system.mem_ctrls.wrQLenPdf::69                      0                       # What write queue length does an incoming req see
system.mem_ctrls.wrQLenPdf::70                      0                       # What write queue length does an incoming req see
system.mem_ctrls.wrQLenPdf::71                      0                       # What write queue length does an incoming req see
system.mem_ctrls.wrQLenPdf::72                      0                       # What write queue length does an incoming req see
system.mem_ctrls.wrQLenPdf::73                      0                       # What write queue length does an incoming req see
system.mem_ctrls.wrQLenPdf::74                      0                       # What write queue length does an incoming req see
system.mem_ctrls.wrQLenPdf::75                      0                       # What write queue length does an incoming req see
system.mem_ctrls.wrQLenPdf::76                      0                       # What write queue length does an incoming req see
system.mem_ctrls.wrQLenPdf::77                      0                       # What write queue length does an incoming req see
system.mem_ctrls.wrQLenPdf::78                      0                       # What write queue length does an incoming req see
system.mem_ctrls.wrQLenPdf::79                      0                       # What write queue length does an incoming req see
system.mem_ctrls.wrQLenPdf::80                      0                       # What write queue length does an incoming req see
system.mem_ctrls.wrQLenPdf::81                      0                       # What write queue length does an incoming req see
system.mem_ctrls.wrQLenPdf::82                      0                       # What write queue length does an incoming req see
system.mem_ctrls.wrQLenPdf::83                      0                       # What write queue length does an incoming req see
system.mem_ctrls.wrQLenPdf::84                      0                       # What write queue length does an incoming req see
system.mem_ctrls.wrQLenPdf::85                      0                       # What write queue length does an incoming req see
system.mem_ctrls.wrQLenPdf::86                      0                       # What write queue length does an incoming req see
system.mem_ctrls.wrQLenPdf::87                      0                       # What write queue length does an incoming req see
system.mem_ctrls.wrQLenPdf::88                      0                       # What write queue length does an incoming req see
system.mem_ctrls.wrQLenPdf::89                      0                       # What write queue length does an incoming req see
system.mem_ctrls.wrQLenPdf::90                      0                       # What write queue length does an incoming req see
system.mem_ctrls.wrQLenPdf::91                      0                       # What write queue length does an incoming req see
system.mem_ctrls.wrQLenPdf::92                      0                       # What write queue length does an incoming req see
system.mem_ctrls.wrQLenPdf::93                      0                       # What write queue length does an incoming req see
system.mem_ctrls.wrQLenPdf::94                      0                       # What write queue length does an incoming req see
system.mem_ctrls.wrQLenPdf::95                      0                       # What write queue length does an incoming req see
system.mem_ctrls.wrQLenPdf::96                      0                       # What write queue length does an incoming req see
system.mem_ctrls.wrQLenPdf::97                      0                       # What write queue length does an incoming req see
system.mem_ctrls.wrQLenPdf::98                      0                       # What write queue length does an incoming req see
system.mem_ctrls.wrQLenPdf::99                      0                       # What write queue length does an incoming req see
system.mem_ctrls.wrQLenPdf::100                     0                       # What write queue length does an incoming req see
system.mem_ctrls.wrQLenPdf::101                     0                       # What write queue length does an incoming req see
system.mem_ctrls.wrQLenPdf::102                     0                       # What write queue length does an incoming req see
system.mem_ctrls.wrQLenPdf::103                     0                       # What write queue length does an incoming req see
system.mem_ctrls.wrQLenPdf::104                     0                       # What write queue length does an incoming req see
system.mem_ctrls.wrQLenPdf::105                     0                       # What write queue length does an incoming req see
system.mem_ctrls.wrQLenPdf::106                     0                       # What write queue length does an incoming req see
system.mem_ctrls.wrQLenPdf::107                     0                       # What write queue length does an incoming req see
system.mem_ctrls.wrQLenPdf::108                     0                       # What write queue length does an incoming req see
system.mem_ctrls.wrQLenPdf::109                     0                       # What write queue length does an incoming req see
system.mem_ctrls.wrQLenPdf::110                     0                       # What write queue length does an incoming req see
system.mem_ctrls.wrQLenPdf::111                     0                       # What write queue length does an incoming req see
system.mem_ctrls.wrQLenPdf::112                     0                       # What write queue length does an incoming req see
system.mem_ctrls.wrQLenPdf::113                     0                       # What write queue length does an incoming req see
system.mem_ctrls.wrQLenPdf::114                     0                       # What write queue length does an incoming req see
system.mem_ctrls.wrQLenPdf::115                     0                       # What write queue length does an incoming req see
system.mem_ctrls.wrQLenPdf::116                     0                       # What write queue length does an incoming req see
system.mem_ctrls.wrQLenPdf::117                     0                       # What write queue length does an incoming req see
system.mem_ctrls.wrQLenPdf::118                     0                       # What write queue length does an incoming req see
system.mem_ctrls.wrQLenPdf::119                     0                       # What write queue length does an incoming req see
system.mem_ctrls.wrQLenPdf::120                     0                       # What write queue length does an incoming req see
system.mem_ctrls.wrQLenPdf::121                     0                       # What write queue length does an incoming req see
system.mem_ctrls.wrQLenPdf::122                     0                       # What write queue length does an incoming req see
system.mem_ctrls.wrQLenPdf::123                     0                       # What write queue length does an incoming req see
system.mem_ctrls.wrQLenPdf::124                     0                       # What write queue length does an incoming req see
system.mem_ctrls.wrQLenPdf::125                     0                       # What write queue length does an incoming req see
system.mem_ctrls.wrQLenPdf::126                     0                       # What write queue length does an incoming req see
system.mem_ctrls.wrQLenPdf::127                     0                       # What write queue length does an incoming req see
system.mem_ctrls.rdPerTurnAround::samples        80875                       # Reads before turning the bus around for writes
system.mem_ctrls.rdPerTurnAround::mean      18.402893                       # Reads before turning the bus around for writes
system.mem_ctrls.rdPerTurnAround::gmean     17.987730                       # Reads before turning the bus around for writes
system.mem_ctrls.rdPerTurnAround::stdev    116.879668                       # Reads before turning the bus around for writes
system.mem_ctrls.rdPerTurnAround::0-1023        80874    100.00%    100.00% # Reads before turning the bus around for writes
system.mem_ctrls.rdPerTurnAround::32768-33791            1      0.00%    100.00% # Reads before turning the bus around for writes
system.mem_ctrls.rdPerTurnAround::total         80875                       # Reads before turning the bus around for writes
system.mem_ctrls.wrPerTurnAround::samples        80875                       # Writes before turning the bus around for reads
system.mem_ctrls.wrPerTurnAround::mean      17.987326                       # Writes before turning the bus around for reads
system.mem_ctrls.wrPerTurnAround::gmean     17.986025                       # Writes before turning the bus around for reads
system.mem_ctrls.wrPerTurnAround::stdev      0.211451                       # Writes before turning the bus around for reads
system.mem_ctrls.wrPerTurnAround::16              710      0.88%      0.88% # Writes before turning the bus around for reads
system.mem_ctrls.wrPerTurnAround::18            79967     98.88%     99.76% # Writes before turning the bus around for reads
system.mem_ctrls.wrPerTurnAround::19                1      0.00%     99.76% # Writes before turning the bus around for reads
system.mem_ctrls.wrPerTurnAround::20              197      0.24%    100.00% # Writes before turning the bus around for reads
system.mem_ctrls.wrPerTurnAround::total         80875                       # Writes before turning the bus around for reads
system.mem_ctrls.bytesReadWrQ                       0                       # Total number of bytes read from write queue
system.mem_ctrls.bytesReadSys                95253504                       # Total read bytes from the system interface side
system.mem_ctrls.bytesWrittenSys             93105536                       # Total written bytes from the system interface side
system.mem_ctrls.avgRdBWSys                    761.91                       # Average system read bandwidth in MiByte/s
system.mem_ctrls.avgWrBWSys                    744.73                       # Average system write bandwidth in MiByte/s
system.mem_ctrls.totGap                  125020001000                       # Total gap between requests
system.mem_ctrls.avgGap                      84957.75                       # Average gap between requests
system.mem_ctrls.requestorReadBytes::.cpu.inst        42880                       # Per-requestor bytes read from memory
system.mem_ctrls.requestorReadBytes::.cpu.data     95210624                       # Per-requestor bytes read from memory
system.mem_ctrls.requestorWriteBytes::.writebacks     93102400                       # Per-requestor bytes write to memory
system.mem_ctrls.requestorReadRate::.cpu.inst 342985.063396425685                       # Per-requestor bytes read from memory rate (Bytes/sec)
system.mem_ctrls.requestorReadRate::.cpu.data 761563010.929413437843                       # Per-requestor bytes read from memory rate (Bytes/sec)
system.mem_ctrls.requestorWriteRate::.writebacks 744699919.924425840378                       # Per-requestor bytes write to memory rate (Bytes/sec)
system.mem_ctrls.requestorReadAccesses::.cpu.inst          670                       # Per-requestor read serviced memory accesses
system.mem_ctrls.requestorReadAccesses::.cpu.data      1487666                       # Per-requestor read serviced memory accesses
system.mem_ctrls.requestorWriteAccesses::.writebacks      1454774                       # Per-requestor write serviced memory accesses
system.mem_ctrls.requestorReadTotalLat::.cpu.inst     17868516                       # Per-requestor read total memory access latency
system.mem_ctrls.requestorReadTotalLat::.cpu.data  51581433500                       # Per-requestor read total memory access latency
system.mem_ctrls.requestorWriteTotalLat::.writebacks 6800941285696                       # Per-requestor write total memory access latency
system.mem_ctrls.requestorReadAvgLat::.cpu.inst     26669.43                       # Per-requestor read average memory access latency
system.mem_ctrls.requestorReadAvgLat::.cpu.data     34672.72                       # Per-requestor read average memory access latency
system.mem_ctrls.requestorWriteAvgLat::.writebacks   4674912.59                       # Per-requestor write average memory access latency
system.mem_ctrls.dram.bytes_read::.cpu.inst        42880                       # Number of bytes read from this memory
system.mem_ctrls.dram.bytes_read::.cpu.data     95210624                       # Number of bytes read from this memory
system.mem_ctrls.dram.bytes_read::total      95253504                       # Number of bytes read from this memory
system.mem_ctrls.dram.bytes_inst_read::.cpu.inst        42880                       # Number of instructions bytes read from this memory
system.mem_ctrls.dram.bytes_inst_read::total        42880                       # Number of instructions bytes read from this memory
system.mem_ctrls.dram.bytes_written::.writebacks     93105536                       # Number of bytes written to this memory
system.mem_ctrls.dram.bytes_written::total     93105536                       # Number of bytes written to this memory
system.mem_ctrls.dram.num_reads::.cpu.inst          335                       # Number of read requests responded to by this memory
system.mem_ctrls.dram.num_reads::.cpu.data       743833                       # Number of read requests responded to by this memory
system.mem_ctrls.dram.num_reads::total         744168                       # Number of read requests responded to by this memory
system.mem_ctrls.dram.num_writes::.writebacks       727387                       # Number of write requests responded to by this memory
system.mem_ctrls.dram.num_writes::total        727387                       # Number of write requests responded to by this memory
system.mem_ctrls.dram.bw_read::.cpu.inst       342985                       # Total read bandwidth from this memory (bytes/s)
system.mem_ctrls.dram.bw_read::.cpu.data    761563011                       # Total read bandwidth from this memory (bytes/s)
system.mem_ctrls.dram.bw_read::total        761905996                       # Total read bandwidth from this memory (bytes/s)
system.mem_ctrls.dram.bw_inst_read::.cpu.inst       342985                       # Instruction read bandwidth from this memory (bytes/s)
system.mem_ctrls.dram.bw_inst_read::total       342985                       # Instruction read bandwidth from this memory (bytes/s)
system.mem_ctrls.dram.bw_write::.writebacks    744725004                       # Write bandwidth from this memory (bytes/s)
system.mem_ctrls.dram.bw_write::total       744725004                       # Write bandwidth from this memory (bytes/s)
system.mem_ctrls.dram.bw_total::.writebacks    744725004                       # Total bandwidth to/from this memory (bytes/s)
system.mem_ctrls.dram.bw_total::.cpu.inst       342985                       # Total bandwidth to/from this memory (bytes/s)
system.mem_ctrls.dram.bw_total::.cpu.data    761563011                       # Total bandwidth to/from this memory (bytes/s)
system.mem_ctrls.dram.bw_total::total      1506631000                       # Total bandwidth to/from this memory (bytes/s)
system.mem_ctrls.dram.readBursts              1488336                       # Number of DRAM read bursts
system.mem_ctrls.dram.writeBursts             1454725                       # Number of DRAM write bursts
system.mem_ctrls.dram.perBankRdBursts::0        46508                       # Per bank write bursts
system.mem_ctrls.dram.perBankRdBursts::1        46464                       # Per bank write bursts
system.mem_ctrls.dram.perBankRdBursts::2        46514                       # Per bank write bursts
system.mem_ctrls.dram.perBankRdBursts::3        46474                       # Per bank write bursts
system.mem_ctrls.dram.perBankRdBursts::4        46526                       # Per bank write bursts
system.mem_ctrls.dram.perBankRdBursts::5        46482                       # Per bank write bursts
system.mem_ctrls.dram.perBankRdBursts::6        46474                       # Per bank write bursts
system.mem_ctrls.dram.perBankRdBursts::7        46490                       # Per bank write bursts
system.mem_ctrls.dram.perBankRdBursts::8        46524                       # Per bank write bursts
system.mem_ctrls.dram.perBankRdBursts::9        46470                       # Per bank write bursts
system.mem_ctrls.dram.perBankRdBursts::10        46502                       # Per bank write bursts
system.mem_ctrls.dram.perBankRdBursts::11        46488                       # Per bank write bursts
system.mem_ctrls.dram.perBankRdBursts::12        46534                       # Per bank write bursts
system.mem_ctrls.dram.perBankRdBursts::13        46490                       # Per bank write bursts
system.mem_ctrls.dram.perBankRdBursts::14        46502                       # Per bank write bursts
system.mem_ctrls.dram.perBankRdBursts::15        46498                       # Per bank write bursts
system.mem_ctrls.dram.perBankRdBursts::16        46548                       # Per bank write bursts
system.mem_ctrls.dram.perBankRdBursts::17        46526                       # Per bank write bursts
system.mem_ctrls.dram.perBankRdBursts::18        46496                       # Per bank write bursts
system.mem_ctrls.dram.perBankRdBursts::19        46486                       # Per bank write bursts
system.mem_ctrls.dram.perBankRdBursts::20        46472                       # Per bank write bursts
system.mem_ctrls.dram.perBankRdBursts::21        46540                       # Per bank write bursts
system.mem_ctrls.dram.perBankRdBursts::22        46592                       # Per bank write bursts
system.mem_ctrls.dram.perBankRdBursts::23        46592                       # Per bank write bursts
system.mem_ctrls.dram.perBankRdBursts::24        46670                       # Per bank write bursts
system.mem_ctrls.dram.perBankRdBursts::25        46614                       # Per bank write bursts
system.mem_ctrls.dram.perBankRdBursts::26        46470                       # Per bank write bursts
system.mem_ctrls.dram.perBankRdBursts::27        46472                       # Per bank write bursts
system.mem_ctrls.dram.perBankRdBursts::28        46484                       # Per bank write bursts
system.mem_ctrls.dram.perBankRdBursts::29        46474                       # Per bank write bursts
system.mem_ctrls.dram.perBankRdBursts::30        46470                       # Per bank write bursts
system.mem_ctrls.dram.perBankRdBursts::31        46490                       # Per bank write bursts
system.mem_ctrls.dram.perBankWrBursts::0        45440                       # Per bank write bursts
system.mem_ctrls.dram.perBankWrBursts::1        45440                       # Per bank write bursts
system.mem_ctrls.dram.perBankWrBursts::2        45440                       # Per bank write bursts
system.mem_ctrls.dram.perBankWrBursts::3        45440                       # Per bank write bursts
system.mem_ctrls.dram.perBankWrBursts::4        45440                       # Per bank write bursts
system.mem_ctrls.dram.perBankWrBursts::5        45440                       # Per bank write bursts
system.mem_ctrls.dram.perBankWrBursts::6        45440                       # Per bank write bursts
system.mem_ctrls.dram.perBankWrBursts::7        45440                       # Per bank write bursts
system.mem_ctrls.dram.perBankWrBursts::8        45440                       # Per bank write bursts
system.mem_ctrls.dram.perBankWrBursts::9        45440                       # Per bank write bursts
system.mem_ctrls.dram.perBankWrBursts::10        45440                       # Per bank write bursts
system.mem_ctrls.dram.perBankWrBursts::11        45440                       # Per bank write bursts
system.mem_ctrls.dram.perBankWrBursts::12        45440                       # Per bank write bursts
system.mem_ctrls.dram.perBankWrBursts::13        45440                       # Per bank write bursts
system.mem_ctrls.dram.perBankWrBursts::14        45440                       # Per bank write bursts
system.mem_ctrls.dram.perBankWrBursts::15        45440                       # Per bank write bursts
system.mem_ctrls.dram.perBankWrBursts::16        45444                       # Per bank write bursts
system.mem_ctrls.dram.perBankWrBursts::17        45494                       # Per bank write bursts
system.mem_ctrls.dram.perBankWrBursts::18        45466                       # Per bank write bursts
system.mem_ctrls.dram.perBankWrBursts::19        45458                       # Per bank write bursts
system.mem_ctrls.dram.perBankWrBursts::20        45448                       # Per bank write bursts
system.mem_ctrls.dram.perBankWrBursts::21        45506                       # Per bank write bursts
system.mem_ctrls.dram.perBankWrBursts::22        45568                       # Per bank write bursts
system.mem_ctrls.dram.perBankWrBursts::23        45568                       # Per bank write bursts
system.mem_ctrls.dram.perBankWrBursts::24        45568                       # Per bank write bursts
system.mem_ctrls.dram.perBankWrBursts::25        45521                       # Per bank write bursts
system.mem_ctrls.dram.perBankWrBursts::26        45444                       # Per bank write bursts
system.mem_ctrls.dram.perBankWrBursts::27        45440                       # Per bank write bursts
system.mem_ctrls.dram.perBankWrBursts::28        45440                       # Per bank write bursts
system.mem_ctrls.dram.perBankWrBursts::29        45440                       # Per bank write bursts
system.mem_ctrls.dram.perBankWrBursts::30        45440                       # Per bank write bursts
system.mem_ctrls.dram.perBankWrBursts::31        45440                       # Per bank write bursts
system.mem_ctrls.dram.totQLat             25565328704                       # Total ticks spent queuing
system.mem_ctrls.dram.totBusLat            4959135552                       # Total ticks spent in databus transfers
system.mem_ctrls.dram.totMemAccLat        51599302016                       # Total ticks spent from burst creation until serviced by the DRAM
system.mem_ctrls.dram.avgQLat                17177.12                       # Average queueing delay per DRAM burst
[...]
system.cpu.dcache.ReadReq_hits::total        35702578                       # number of ReadReq hits
system.cpu.dcache.ReadReq_misses::.cpu.data           95                       # number of ReadReq misses
system.cpu.dcache.ReadReq_misses::total            95                       # number of ReadReq misses
system.cpu.dcache.ReadReq_miss_latency::.cpu.data      7201000                       # number of ReadReq miss cycles
system.cpu.dcache.ReadReq_miss_latency::total      7201000                       # number of ReadReq miss cycles
system.cpu.dcache.ReadReq_accesses::.cpu.data     35702673                       # number of ReadReq accesses(hits+misses)
system.cpu.dcache.ReadReq_accesses::total     35702673                       # number of ReadReq accesses(hits+misses)
system.cpu.dcache.ReadReq_miss_rate::.cpu.data     0.000003                       # miss rate for ReadReq accesses
system.cpu.dcache.ReadReq_miss_rate::total     0.000003                       # miss rate for ReadReq accesses
system.cpu.dcache.ReadReq_avg_miss_latency::.cpu.data        75800                       # average ReadReq miss latency
system.cpu.dcache.ReadReq_avg_miss_latency::total        75800                       # average ReadReq miss latency
system.cpu.dcache.ReadReq_mshr_hits::.cpu.data            7                       # number of ReadReq MSHR hits
system.cpu.dcache.ReadReq_mshr_hits::total            7                       # number of ReadReq MSHR hits
system.cpu.dcache.ReadReq_mshr_misses::.cpu.data           88                       # number of ReadReq MSHR misses
system.cpu.dcache.ReadReq_mshr_misses::total           88                       # number of ReadReq MSHR misses
system.cpu.dcache.ReadReq_mshr_miss_latency::.cpu.data      6663500                       # number of ReadReq MSHR miss cycles
system.cpu.dcache.ReadReq_mshr_miss_latency::total      6663500                       # number of ReadReq MSHR miss cycles
system.cpu.dcache.ReadReq_mshr_miss_rate::.cpu.data     0.000002                       # mshr miss rate for ReadReq accesses
system.cpu.dcache.ReadReq_mshr_miss_rate::total     0.000002                       # mshr miss rate for ReadReq accesses
system.cpu.dcache.ReadReq_avg_mshr_miss_latency::.cpu.data 75721.590909                       # average ReadReq mshr miss latency
system.cpu.dcache.ReadReq_avg_mshr_miss_latency::total 75721.590909                       # average ReadReq mshr miss latency
system.cpu.dcache.WriteReq_hits::.cpu.data     11605027                       # number of WriteReq hits
system.cpu.dcache.WriteReq_hits::total       11605027                       # number of WriteReq hits
system.cpu.dcache.WriteReq_misses::.cpu.data      1487500                       # number of WriteReq misses
system.cpu.dcache.WriteReq_misses::total      1487500                       # number of WriteReq misses
system.cpu.dcache.WriteReq_miss_latency::.cpu.data 132199157000                       # number of WriteReq miss cycles
system.cpu.dcache.WriteReq_miss_latency::total 132199157000                       # number of WriteReq miss cycles
system.cpu.dcache.WriteReq_accesses::.cpu.data     13092527                       # number of WriteReq accesses(hits+misses)
system.cpu.dcache.WriteReq_accesses::total     13092527                       # number of WriteReq accesses(hits+misses)
system.cpu.dcache.WriteReq_miss_rate::.cpu.data     0.113614                       # miss rate for WriteReq accesses
system.cpu.dcache.WriteReq_miss_rate::total     0.113614                       # miss rate for WriteReq accesses
system.cpu.dcache.WriteReq_avg_miss_latency::.cpu.data 88873.382857                       # average WriteReq miss latency
system.cpu.dcache.WriteReq_avg_miss_latency::total 88873.382857                       # average WriteReq miss latency
system.cpu.dcache.WriteReq_mshr_hits::.cpu.data       743742                       # number of WriteReq MSHR hits
system.cpu.dcache.WriteReq_mshr_hits::total       743742                       # number of WriteReq MSHR hits
system.cpu.dcache.WriteReq_mshr_misses::.cpu.data       743758                       # number of WriteReq MSHR misses
system.cpu.dcache.WriteReq_mshr_misses::total       743758                       # number of WriteReq MSHR misses
system.cpu.dcache.WriteReq_mshr_miss_latency::.cpu.data  66957889000                       # number of WriteReq MSHR miss cycles
system.cpu.dcache.WriteReq_mshr_miss_latency::total  66957889000                       # number of WriteReq MSHR miss cycles
system.cpu.dcache.WriteReq_mshr_miss_rate::.cpu.data     0.056808                       # mshr miss rate for WriteReq accesses
system.cpu.dcache.WriteReq_mshr_miss_rate::total     0.056808                       # mshr miss rate for WriteReq accesses
system.cpu.dcache.WriteReq_avg_mshr_miss_latency::.cpu.data 90026.445430                       # average WriteReq mshr miss latency
system.cpu.dcache.WriteReq_avg_mshr_miss_latency::total 90026.445430                       # average WriteReq mshr miss latency
system.cpu.dcache.SoftPFReq_hits::.cpu.data           38                       # number of SoftPFReq hits
system.cpu.dcache.SoftPFReq_hits::total            38                       # number of SoftPFReq hits
system.cpu.dcache.SoftPFReq_misses::.cpu.data           14                       # number of SoftPFReq misses
system.cpu.dcache.SoftPFReq_misses::total           14                       # number of SoftPFReq misses
system.cpu.dcache.SoftPFReq_accesses::.cpu.data           52                       # number of SoftPFReq accesses(hits+misses)
system.cpu.dcache.SoftPFReq_accesses::total           52                       # number of SoftPFReq accesses(hits+misses)
system.cpu.dcache.SoftPFReq_miss_rate::.cpu.data     0.269231                       # miss rate for SoftPFReq accesses
system.cpu.dcache.SoftPFReq_miss_rate::total     0.269231                       # miss rate for SoftPFReq accesses
system.cpu.dcache.SoftPFReq_mshr_misses::.cpu.data            9                       # number of SoftPFReq MSHR misses
system.cpu.dcache.SoftPFReq_mshr_misses::total            9                       # number of SoftPFReq MSHR misses
system.cpu.dcache.SoftPFReq_mshr_miss_latency::.cpu.data       759500                       # number of SoftPFReq MSHR miss cycles
system.cpu.dcache.SoftPFReq_mshr_miss_latency::total       759500                       # number of SoftPFReq MSHR miss cycles
system.cpu.dcache.SoftPFReq_mshr_miss_rate::.cpu.data     0.173077                       # mshr miss rate for SoftPFReq accesses
system.cpu.dcache.SoftPFReq_mshr_miss_rate::total     0.173077                       # mshr miss rate for SoftPFReq accesses
system.cpu.dcache.SoftPFReq_avg_mshr_miss_latency::.cpu.data 84388.888889                       # average SoftPFReq mshr miss latency
system.cpu.dcache.SoftPFReq_avg_mshr_miss_latency::total 84388.888889                       # average SoftPFReq mshr miss latency
system.cpu.dcache.LoadLockedReq_hits::.cpu.data           14                       # number of LoadLockedReq hits
system.cpu.dcache.LoadLockedReq_hits::total           14                       # number of LoadLockedReq hits
system.cpu.dcache.LoadLockedReq_accesses::.cpu.data           14                       # number of LoadLockedReq accesses(hits+misses)
system.cpu.dcache.LoadLockedReq_accesses::total           14                       # number of LoadLockedReq accesses(hits+misses)
system.cpu.dcache.StoreCondReq_hits::.cpu.data           14                       # number of StoreCondReq hits
system.cpu.dcache.StoreCondReq_hits::total           14                       # number of StoreCondReq hits
system.cpu.dcache.StoreCondReq_accesses::.cpu.data           14                       # number of StoreCondReq accesses(hits+misses)
system.cpu.dcache.StoreCondReq_accesses::total           14                       # number of StoreCondReq accesses(hits+misses)
system.cpu.dcache.power_state.pwrStateResidencyTicks::UNDEFINED 125020021500                       # Cumulative time (in ticks) in various power states
system.cpu.dcache.tags.tagsinuse           511.722278                       # Cycle average of tags in use
system.cpu.dcache.tags.total_refs            48051526                       # Total number of references to valid blocks.
system.cpu.dcache.tags.sampled_refs            743855                       # Sample count of references to valid blocks.
system.cpu.dcache.tags.avg_refs             64.597974                       # Average number of references to valid blocks.
system.cpu.dcache.tags.warmup_cycle            184500                       # Cycle when the warmup percentage was hit.
system.cpu.dcache.tags.occ_blocks::.cpu.data   511.722278                       # Average occupied blocks per requestor
system.cpu.dcache.tags.occ_percent::.cpu.data     0.999458                       # Average percentage of cache occupancy
system.cpu.dcache.tags.occ_percent::total     0.999458                       # Average percentage of cache occupancy
system.cpu.dcache.tags.occ_task_id_blocks::1024          512                       # Occupied blocks per task id
system.cpu.dcache.tags.age_task_id_blocks_1024::0           61                       # Occupied blocks per task id
system.cpu.dcache.tags.age_task_id_blocks_1024::1          449                       # Occupied blocks per task id
system.cpu.dcache.tags.age_task_id_blocks_1024::4            2                       # Occupied blocks per task id
system.cpu.dcache.tags.occ_task_id_percent::1024            1                       # Percentage of cache occupancy per task id
system.cpu.dcache.tags.tag_accesses          98334415                       # Number of tag accesses
system.cpu.dcache.tags.data_accesses         98334415                       # Number of data accesses
system.cpu.dcache.tags.power_state.pwrStateResidencyTicks::UNDEFINED 125020021500                       # Cumulative time (in ticks) in various power states
system.cpu.power_state.pwrStateResidencyTicks::ON 125020021500                       # Cumulative time (in ticks) in various power states
system.cpu.branchPred.lookups                  606606                       # Number of BP lookups
system.cpu.branchPred.condPredicted            604490                       # Number of conditional branches predicted
system.cpu.branchPred.condIncorrect               823                       # Number of conditional branches incorrect
system.cpu.branchPred.BTBLookups               602569                       # Number of BTB lookups
system.cpu.branchPred.BTBHits                  601415                       # Number of BTB hits
system.cpu.branchPred.BTBHitPct             99.808487                       # BTB Hit Percentage
system.cpu.branchPred.RASUsed                     567                       # Number of times the RAS was used to get a target.
system.cpu.branchPred.RASIncorrect                  2                       # Number of incorrect RAS predictions.
system.cpu.branchPred.indirectLookups             372                       # Number of indirect predictor lookups.
system.cpu.branchPred.indirectHits                174                       # Number of indirect target hits.
system.cpu.branchPred.indirectMisses              198                       # Number of indirect misses.
system.cpu.branchPred.indirectMispredicted          102                       # Number of mispredicted indirect branches.
system.cpu.fetch2.intInstructions            49674762                       # Number of integer instructions successfully decoded
system.cpu.fetch2.fpInstructions                    0                       # Number of floating point instructions successfully decoded
system.cpu.fetch2.vecInstructions                   0                       # Number of SIMD instructions successfully decoded
system.cpu.fetch2.loadInstructions           37097092                       # Number of memory load instructions successfully decoded
system.cpu.fetch2.storeInstructions          13161188                       # Number of memory store instructions successfully decoded
system.cpu.fetch2.amoInstructions                   0                       # Number of memory atomic instructions successfully decoded
system.cpu.itb.instHits                             0                       # ITB inst hits
system.cpu.itb.instMisses                           0                       # ITB inst misses
system.cpu.itb.readHits                             0                       # DTB read hits
system.cpu.itb.readMisses                           0                       # DTB read misses
system.cpu.itb.writeHits                            0                       # DTB write hits
system.cpu.itb.writeMisses                          0                       # DTB write misses
system.cpu.itb.inserts                              0                       # Number of times an entry is inserted into the TLB
system.cpu.itb.flushTlb                             0                       # Number of times complete TLB was flushed
system.cpu.itb.flushTlbMva                          0                       # Number of times TLB was flushed by MVA
system.cpu.itb.flushTlbMvaAsid                      0                       # Number of times TLB was flushed by MVA & ASID
system.cpu.itb.flushTlbAsid                         0                       # Number of times TLB was flushed by ASID
system.cpu.itb.flushedEntries                       0                       # Number of entries that have been flushed from TLB
system.cpu.itb.alignFaults                          0                       # Number of TLB faults due to alignment restrictions
system.cpu.itb.prefetchFaults                       0                       # Number of TLB faults due to prefetch
system.cpu.itb.domainFaults                         0                       # Number of TLB faults due to domain restrictions
system.cpu.itb.permsFaults                          0                       # Number of TLB faults due to permissions restrictions
system.cpu.itb.readAccesses                         0                       # DTB read accesses
system.cpu.itb.writeAccesses                        0                       # DTB write accesses
system.cpu.itb.instAccesses                         0                       # ITB inst accesses
system.cpu.itb.hits                                 0                       # Total TLB (inst and data) hits
system.cpu.itb.misses                               0                       # Total TLB (inst and data) misses
system.cpu.itb.accesses                             0                       # Total TLB (inst and data) accesses
system.cpu.itb.walker.walks                         0                       # Table walker walks requested
system.cpu.itb.walker.requestOrigin_Requested::Data            0                       # Table walker requests started/completed, data/inst
system.cpu.itb.walker.requestOrigin_Requested::Inst            0                       # Table walker requests started/completed, data/inst
system.cpu.itb.walker.requestOrigin_Requested::total            0                       # Table walker requests started/completed, data/inst
system.cpu.itb.walker.requestOrigin_Completed::Data            0                       # Table walker requests started/completed, data/inst
system.cpu.itb.walker.requestOrigin_Completed::Inst            0                       # Table walker requests started/completed, data/inst
system.cpu.itb.walker.requestOrigin_Completed::total            0                       # Table walker requests started/completed, data/inst
system.cpu.itb.walker.requestOrigin::total            0                       # Table walker requests started/completed, data/inst
system.cpu.itb.walker.power_state.pwrStateResidencyTicks::UNDEFINED 125020021500                       # Cumulative time (in ticks) in various power states
system.cpu.itb.stage2_mmu.stage2_tlb.instHits            0                       # ITB inst hits
system.cpu.itb.stage2_mmu.stage2_tlb.instMisses            0                       # ITB inst misses
system.cpu.itb.stage2_mmu.stage2_tlb.readHits            0                       # DTB read hits
system.cpu.itb.stage2_mmu.stage2_tlb.readMisses            0                       # DTB read misses
system.cpu.itb.stage2_mmu.stage2_tlb.writeHits            0                       # DTB write hits
system.cpu.itb.stage2_mmu.stage2_tlb.writeMisses            0                       # DTB write misses
system.cpu.itb.stage2_mmu.stage2_tlb.inserts            0                       # Number of times an entry is inserted into the TLB
system.cpu.itb.stage2_mmu.stage2_tlb.flushTlb            0                       # Number of times complete TLB was flushed
system.cpu.itb.stage2_mmu.stage2_tlb.flushTlbMva            0                       # Number of times TLB was flushed by MVA
system.cpu.itb.stage2_mmu.stage2_tlb.flushTlbMvaAsid            0                       # Number of times TLB was flushed by MVA & ASID
system.cpu.itb.stage2_mmu.stage2_tlb.flushTlbAsid            0                       # Number of times TLB was flushed by ASID
system.cpu.itb.stage2_mmu.stage2_tlb.flushedEntries            0                       # Number of entries that have been flushed from TLB
system.cpu.itb.stage2_mmu.stage2_tlb.alignFaults            0                       # Number of TLB faults due to alignment restrictions
system.cpu.itb.stage2_mmu.stage2_tlb.prefetchFaults            0                       # Number of TLB faults due to prefetch
system.cpu.itb.stage2_mmu.stage2_tlb.domainFaults            0                       # Number of TLB faults due to domain restrictions
system.cpu.itb.stage2_mmu.stage2_tlb.permsFaults            0                       # Number of TLB faults due to permissions restrictions
system.cpu.itb.stage2_mmu.stage2_tlb.readAccesses            0                       # DTB read accesses
system.cpu.itb.stage2_mmu.stage2_tlb.writeAccesses            0                       # DTB write accesses
system.cpu.itb.stage2_mmu.stage2_tlb.instAccesses            0                       # ITB inst accesses
system.cpu.itb.stage2_mmu.stage2_tlb.hits            0                       # Total TLB (inst and data) hits
system.cpu.itb.stage2_mmu.stage2_tlb.misses            0                       # Total TLB (inst and data) misses
system.cpu.itb.stage2_mmu.stage2_tlb.accesses            0                       # Total TLB (inst and data) accesses
system.cpu.itb.stage2_mmu.stage2_tlb.walker.walks            0                       # Table walker walks requested
system.cpu.itb.stage2_mmu.stage2_tlb.walker.requestOrigin_Requested::Data            0                       # Table walker requests started/completed, data/inst
system.cpu.itb.stage2_mmu.stage2_tlb.walker.requestOrigin_Requested::Inst            0                       # Table walker requests started/completed, data/inst
system.cpu.itb.stage2_mmu.stage2_tlb.walker.requestOrigin_Requested::total            0                       # Table walker requests started/completed, data/inst
system.cpu.itb.stage2_mmu.stage2_tlb.walker.requestOrigin_Completed::Data            0                       # Table walker requests started/completed, data/inst
system.cpu.itb.stage2_mmu.stage2_tlb.walker.requestOrigin_Completed::Inst            0                       # Table walker requests started/completed, data/inst
system.cpu.itb.stage2_mmu.stage2_tlb.walker.requestOrigin_Completed::total            0                       # Table walker requests started/completed, data/inst
system.cpu.itb.stage2_mmu.stage2_tlb.walker.requestOrigin::total            0                       # Table walker requests started/completed, data/inst
system.cpu.itb.stage2_mmu.stage2_tlb.walker.power_state.pwrStateResidencyTicks::UNDEFINED 125020021500                       # Cumulative time (in ticks) in various power states

---------- End Simulation Statistics   ----------
