
---------- Begin Simulation Statistics ----------
final_tick                                59394859500                       # Number of ticks from beginning of simulation (restored from checkpoints and never reset)
host_inst_rate                                 326138                       # Simulator instruction rate (inst/s)
host_mem_usage                                 683328                       # Number of bytes of host memory used
host_op_rate                                   329734                       # Simulator op (including micro ops) rate (op/s)
host_seconds                                   306.62                       # Real time elapsed on the host
host_tick_rate                              193709090                       # Simulator tick rate (ticks/s)
sim_freq                                 1000000000000                       # Frequency of simulated ticks
sim_insts                                   100000000                       # Number of instructions simulated
sim_ops                                     101102730                       # Number of ops (including micro ops) simulated
sim_seconds                                  0.059395                       # Number of seconds simulated
sim_ticks                                 59394859500                       # Number of ticks simulated
system.cpu.committedInsts                   100000000                       # Number of instructions committed
system.cpu.committedOps                     101102730                       # Number of ops (including micro ops) committed
system.cpu.cpi                               1.187897                       # CPI: cycles per instruction
system.cpu.discardedOps                        971108                       # Number of ops (including micro ops) which were discarded before commit
system.cpu.idleCycles                         2878145                       # Total number of cycles that the object has spent stopped
system.cpu.ipc                               0.841824                       # IPC: instructions per cycle
system.cpu.numCycles                        118789719                       # number of cpu cycles simulated
system.cpu.numFetchSuspends                         0                       # Number of times Execute suspended instruction fetching
system.cpu.numWorkItemsCompleted                    0                       # number of work items this cpu completed
system.cpu.numWorkItemsStarted                      0                       # number of work items this cpu started
system.cpu.op_class_0::No_OpClass                   0      0.00%      0.00% # Class of committed instruction
system.cpu.op_class_0::IntAlu                55115624     54.51%     54.51% # Class of committed instruction
system.cpu.op_class_0::IntMult                 167845      0.17%     54.68% # Class of committed instruction
system.cpu.op_class_0::IntDiv                       0      0.00%     54.68% # Class of committed instruction
system.cpu.op_class_0::FloatAdd                     0      0.00%     54.68% # Class of committed instruction
system.cpu.op_class_0::FloatCmp                     0      0.00%     54.68% # Class of committed instruction
system.cpu.op_class_0::FloatCvt                     0      0.00%     54.68% # Class of committed instruction
system.cpu.op_class_0::FloatMult                    0      0.00%     54.68% # Class of committed instruction
system.cpu.op_class_0::FloatMultAcc                 0      0.00%     54.68% # Class of committed instruction
system.cpu.op_class_0::FloatDiv                     0      0.00%     54.68% # Class of committed instruction
system.cpu.op_class_0::FloatMisc                    0      0.00%     54.68% # Class of committed instruction
system.cpu.op_class_0::FloatSqrt                    0      0.00%     54.68% # Class of committed instruction
system.cpu.op_class_0::SimdAdd                    380      0.00%     54.68% # Class of committed instruction
system.cpu.op_class_0::SimdAddAcc                   0      0.00%     54.68% # Class of committed instruction
system.cpu.op_class_0::SimdAlu                    470      0.00%     54.68% # Class of committed instruction
system.cpu.op_class_0::SimdCmp                    382      0.00%     54.68% # Class of committed instruction
system.cpu.op_class_0::SimdCvt                      0      0.00%     54.68% # Class of committed instruction
system.cpu.op_class_0::SimdMisc                    53      0.00%     54.68% # Class of committed instruction
system.cpu.op_class_0::SimdMult                     0      0.00%     54.68% # Class of committed instruction
system.cpu.op_class_0::SimdMultAcc                  0      0.00%     54.68% # Class of committed instruction
system.cpu.op_class_0::SimdShift                    0      0.00%     54.68% # Class of committed instruction
system.cpu.op_class_0::SimdShiftAcc                 0      0.00%     54.68% # Class of committed instruction
system.cpu.op_class_0::SimdDiv                      0      0.00%     54.68% # Class of committed instruction
system.cpu.op_class_0::SimdSqrt                     0      0.00%     54.68% # Class of committed instruction
system.cpu.op_class_0::SimdFloatAdd            267609      0.26%     54.95% # Class of committed instruction
system.cpu.op_class_0::SimdFloatAlu                 0      0.00%     54.95% # Class of committed instruction
system.cpu.op_class_0::SimdFloatCmp            259630      0.26%     55.20% # Class of committed instruction
system.cpu.op_class_0::SimdFloatCvt            161456      0.16%     55.36% # Class of committed instruction
system.cpu.op_class_0::SimdFloatDiv             54308      0.05%     55.42% # Class of committed instruction
system.cpu.op_class_0::SimdFloatMisc           483618      0.48%     55.90% # Class of committed instruction
system.cpu.op_class_0::SimdFloatMult            33524      0.03%     55.93% # Class of committed instruction
system.cpu.op_class_0::SimdFloatMultAcc         11115      0.01%     55.94% # Class of committed instruction
system.cpu.op_class_0::SimdFloatSqrt                0      0.00%     55.94% # Class of committed instruction
system.cpu.op_class_0::SimdReduceAdd                0      0.00%     55.94% # Class of committed instruction
system.cpu.op_class_0::SimdReduceAlu                0      0.00%     55.94% # Class of committed instruction
system.cpu.op_class_0::SimdReduceCmp                0      0.00%     55.94% # Class of committed instruction
system.cpu.op_class_0::SimdFloatReduceAdd            0      0.00%     55.94% # Class of committed instruction
system.cpu.op_class_0::SimdFloatReduceCmp            0      0.00%     55.94% # Class of committed instruction
system.cpu.op_class_0::SimdAes                      0      0.00%     55.94% # Class of committed instruction
system.cpu.op_class_0::SimdAesMix                   0      0.00%     55.94% # Class of committed instruction
system.cpu.op_class_0::SimdSha1Hash                 0      0.00%     55.94% # Class of committed instruction
system.cpu.op_class_0::SimdSha1Hash2                0      0.00%     55.94% # Class of committed instruction
system.cpu.op_class_0::SimdSha256Hash               0      0.00%     55.94% # Class of committed instruction
system.cpu.op_class_0::SimdSha256Hash2              0      0.00%     55.94% # Class of committed instruction
system.cpu.op_class_0::SimdShaSigma2                0      0.00%     55.94% # Class of committed instruction
system.cpu.op_class_0::SimdShaSigma3                0      0.00%     55.94% # Class of committed instruction
system.cpu.op_class_0::SimdPredAlu                  0      0.00%     55.94% # Class of committed instruction
system.cpu.op_class_0::MemRead               38167611     37.75%     93.69% # Class of committed instruction
system.cpu.op_class_0::MemWrite               6379105      6.31%    100.00% # Class of committed instruction
system.cpu.op_class_0::FloatMemRead                 0      0.00%    100.00% # Class of committed instruction
system.cpu.op_class_0::FloatMemWrite                0      0.00%    100.00% # Class of committed instruction
system.cpu.op_class_0::IprAccess                    0      0.00%    100.00% # Class of committed instruction
system.cpu.op_class_0::InstPrefetch                 0      0.00%    100.00% # Class of committed instruction
system.cpu.op_class_0::total                101102730                       # Class of committed instruction
system.cpu.tickCycles                       115911574                       # Number of cycles that the object actually ticked
system.cpu.workload.numSyscalls                    32                       # Number of system calls
system.membus.snoop_filter.hit_multi_requests            0                       # Number of requests hitting in the snoop filter with multiple (>1) holders of the requested data.
system.membus.snoop_filter.hit_multi_snoops            0                       # Number of snoops hitting in the snoop filter with multiple (>1) holders of the requested data.
system.membus.snoop_filter.hit_single_requests            0                       # Number of requests hitting in the snoop filter with a single holder of the requested data.
system.membus.snoop_filter.hit_single_snoops            0                       # Number of snoops hitting in the snoop filter with a single holder of the requested data.
system.membus.snoop_filter.tot_requests          5484                       # Total number of requests made to the snoop filter.
system.membus.snoop_filter.tot_snoops               0                       # Total number of snoops made to the snoop filter.
system.tol2bus.snoop_filter.hit_multi_requests          835                       # Number of requests hitting in the snoop filter with multiple (>1) holders of the requested data.
system.tol2bus.snoop_filter.hit_multi_snoops            0                       # Number of snoops hitting in the snoop filter with multiple (>1) holders of the requested data.
system.tol2bus.snoop_filter.hit_single_requests        68612                       # Number of requests hitting in the snoop filter with a single holder of the requested data.
system.tol2bus.snoop_filter.hit_single_snoops            0                       # Number of snoops hitting in the snoop filter with a single holder of the requested data.
system.tol2bus.snoop_filter.tot_requests       138732                       # Total number of requests made to the snoop filter.
system.tol2bus.snoop_filter.tot_snoops              0                       # Total number of snoops made to the snoop filter.
system.membus.trans_dist::ReadResp               1818                       # Transaction distribution
system.membus.trans_dist::ReadExReq              3666                       # Transaction distribution
system.membus.trans_dist::ReadExResp             3666                       # Transaction distribution
system.membus.trans_dist::ReadSharedReq          1818                       # Transaction distribution
system.membus.pkt_count_system.l2.mem_side_port::system.mem_ctrls.port        10968                       # Packet count per connected requestor and responder (bytes)
system.membus.pkt_count::total                  10968                       # Packet count per connected requestor and responder (bytes)
system.membus.pkt_size_system.l2.mem_side_port::system.mem_ctrls.port       350976                       # Cumulative packet size per connected requestor and responder (bytes)
system.membus.pkt_size::total                  350976                       # Cumulative packet size per connected requestor and responder (bytes)
system.membus.snoops                                0                       # Total snoops (count)
system.membus.snoopTraffic                          0                       # Total snoop traffic (bytes)
system.membus.snoop_fanout::samples              5484                       # Request fanout histogram
system.membus.snoop_fanout::mean                    0                       # Request fanout histogram
system.membus.snoop_fanout::stdev                   0                       # Request fanout histogram
system.membus.snoop_fanout::underflows              0      0.00%      0.00% # Request fanout histogram
system.membus.snoop_fanout::0                    5484    100.00%    100.00% # Request fanout histogram
system.membus.snoop_fanout::1                       0      0.00%    100.00% # Request fanout histogram
system.membus.snoop_fanout::overflows               0      0.00%    100.00% # Request fanout histogram
system.membus.snoop_fanout::min_value               0                       # Request fanout histogram
system.membus.snoop_fanout::max_value               0                       # Request fanout histogram
system.membus.snoop_fanout::total                5484                       # Request fanout histogram
system.membus.reqLayer0.occupancy             6664000                       # Layer occupancy (ticks)
system.membus.reqLayer0.utilization               0.0                       # Layer utilization (%)
system.membus.respLayer1.occupancy           29975102                       # Layer occupancy (ticks)
system.membus.respLayer1.utilization              0.1                       # Layer utilization (%)
system.membus.power_state.pwrStateResidencyTicks::UNDEFINED  59394859500                       # Cumulative time (in ticks) in various power states
system.tol2bus.trans_dist::ReadResp             17410                       # Transaction distribution
system.tol2bus.trans_dist::WritebackDirty        63615                       # Transaction distribution
system.tol2bus.trans_dist::WritebackClean         3155                       # Transaction distribution
system.tol2bus.trans_dist::CleanEvict            1830                       # Transaction distribution
system.tol2bus.trans_dist::ReadExReq            52722                       # Transaction distribution
system.tol2bus.trans_dist::ReadExResp           52722                       # Transaction distribution
system.tol2bus.trans_dist::ReadCleanReq          3663                       # Transaction distribution
system.tol2bus.trans_dist::ReadSharedReq        13747                       # Transaction distribution
system.tol2bus.pkt_count_system.cpu.icache.mem_side_port::system.l2.cpu_side_port        10481                       # Packet count per connected requestor and responder (bytes)
system.tol2bus.pkt_count_system.cpu.dcache.mem_side_port::system.l2.cpu_side_port       198383                       # Packet count per connected requestor and responder (bytes)
system.tol2bus.pkt_count::total                208864                       # Packet count per connected requestor and responder (bytes)
system.tol2bus.pkt_size_system.cpu.icache.mem_side_port::system.l2.cpu_side_port       436352                       # Cumulative packet size per connected requestor and responder (bytes)
system.tol2bus.pkt_size_system.cpu.dcache.mem_side_port::system.l2.cpu_side_port      8325376                       # Cumulative packet size per connected requestor and responder (bytes)
system.tol2bus.pkt_size::total                8761728                       # Cumulative packet size per connected requestor and responder (bytes)
system.tol2bus.snoops                               0                       # Total snoops (count)
system.tol2bus.snoopTraffic                         0                       # Total snoop traffic (bytes)
system.tol2bus.snoop_fanout::samples            70132                       # Request fanout histogram
system.tol2bus.snoop_fanout::mean            0.012077                       # Request fanout histogram
system.tol2bus.snoop_fanout::stdev           0.109232                       # Request fanout histogram
system.tol2bus.snoop_fanout::underflows             0      0.00%      0.00% # Request fanout histogram
system.tol2bus.snoop_fanout::0                  69285     98.79%     98.79% # Request fanout histogram
system.tol2bus.snoop_fanout::1                    847      1.21%    100.00% # Request fanout histogram
system.tol2bus.snoop_fanout::2                      0      0.00%    100.00% # Request fanout histogram
system.tol2bus.snoop_fanout::overflows              0      0.00%    100.00% # Request fanout histogram
system.tol2bus.snoop_fanout::min_value              0                       # Request fanout histogram
system.tol2bus.snoop_fanout::max_value              1                       # Request fanout histogram
system.tol2bus.snoop_fanout::total              70132                       # Request fanout histogram
system.tol2bus.reqLayer0.occupancy          136136000                       # Layer occupancy (ticks)
system.tol2bus.reqLayer0.utilization              0.2                       # Layer utilization (%)
system.tol2bus.respLayer1.occupancy          99706993                       # Layer occupancy (ticks)
system.tol2bus.respLayer1.utilization             0.2                       # Layer utilization (%)
system.tol2bus.respLayer0.occupancy           5495498                       # Layer occupancy (ticks)
system.tol2bus.respLayer0.utilization             0.0                       # Layer utilization (%)
system.tol2bus.power_state.pwrStateResidencyTicks::UNDEFINED  59394859500                       # Cumulative time (in ticks) in various power states
system.voltage_domain.voltage                       1                       # Voltage in Volts
system.clk_domain.clock                          1000                       # Clock period in ticks
system.l2.demand_hits::.cpu.inst                 2364                       # number of demand (read+write) hits
system.l2.demand_hits::.cpu.data                62277                       # number of demand (read+write) hits
system.l2.demand_hits::total                    64641                       # number of demand (read+write) hits
system.l2.overall_hits::.cpu.inst                2364                       # number of overall hits
system.l2.overall_hits::.cpu.data               62277                       # number of overall hits
system.l2.overall_hits::total                   64641                       # number of overall hits
system.l2.demand_misses::.cpu.inst               1299                       # number of demand (read+write) misses
system.l2.demand_misses::.cpu.data               4192                       # number of demand (read+write) misses
system.l2.demand_misses::total                   5491                       # number of demand (read+write) misses
system.l2.overall_misses::.cpu.inst              1299                       # number of overall misses
system.l2.overall_misses::.cpu.data              4192                       # number of overall misses
system.l2.overall_misses::total                  5491                       # number of overall misses
system.l2.demand_miss_latency::.cpu.inst     98384000                       # number of demand (read+write) miss cycles
system.l2.demand_miss_latency::.cpu.data    327927500                       # number of demand (read+write) miss cycles
system.l2.demand_miss_latency::total        426311500                       # number of demand (read+write) miss cycles
system.l2.overall_miss_latency::.cpu.inst     98384000                       # number of overall miss cycles
system.l2.overall_miss_latency::.cpu.data    327927500                       # number of overall miss cycles
system.l2.overall_miss_latency::total       426311500                       # number of overall miss cycles
system.l2.demand_accesses::.cpu.inst             3663                       # number of demand (read+write) accesses
system.l2.demand_accesses::.cpu.data            66469                       # number of demand (read+write) accesses
system.l2.demand_accesses::total                70132                       # number of demand (read+write) accesses
system.l2.overall_accesses::.cpu.inst            3663                       # number of overall (read+write) accesses
system.l2.overall_accesses::.cpu.data           66469                       # number of overall (read+write) accesses
system.l2.overall_accesses::total               70132                       # number of overall (read+write) accesses
system.l2.demand_miss_rate::.cpu.inst        0.354627                       # miss rate for demand accesses
system.l2.demand_miss_rate::.cpu.data        0.063067                       # miss rate for demand accesses
system.l2.demand_miss_rate::total            0.078295                       # miss rate for demand accesses
system.l2.overall_miss_rate::.cpu.inst       0.354627                       # miss rate for overall accesses
system.l2.overall_miss_rate::.cpu.data       0.063067                       # miss rate for overall accesses
system.l2.overall_miss_rate::total           0.078295                       # miss rate for overall accesses
system.l2.demand_avg_miss_latency::.cpu.inst 75738.260200                       # average overall miss latency
system.l2.demand_avg_miss_latency::.cpu.data 78226.979962                       # average overall miss latency
system.l2.demand_avg_miss_latency::total 77638.226188                       # average overall miss latency
system.l2.overall_avg_miss_latency::.cpu.inst 75738.260200                       # average overall miss latency
system.l2.overall_avg_miss_latency::.cpu.data 78226.979962                       # average overall miss latency
system.l2.overall_avg_miss_latency::total 77638.226188                       # average overall miss latency
system.l2.blocked_cycles::no_mshrs                  0                       # number of cycles access was blocked
system.l2.blocked_cycles::no_targets                0                       # number of cycles access was blocked
system.l2.blocked::no_mshrs                         0                       # number of cycles access was blocked
system.l2.blocked::no_targets                       0                       # number of cycles access was blocked
system.l2.avg_blocked_cycles::no_mshrs            nan                       # average number of cycles each access was blocked
system.l2.avg_blocked_cycles::no_targets          nan                       # average number of cycles each access was blocked
system.l2.demand_mshr_hits::.cpu.inst               1                       # number of demand (read+write) MSHR hits
system.l2.demand_mshr_hits::.cpu.data               6                       # number of demand (read+write) MSHR hits
system.l2.demand_mshr_hits::total                   7                       # number of demand (read+write) MSHR hits
system.l2.overall_mshr_hits::.cpu.inst              1                       # number of overall MSHR hits
system.l2.overall_mshr_hits::.cpu.data              6                       # number of overall MSHR hits
system.l2.overall_mshr_hits::total                  7                       # number of overall MSHR hits
system.l2.demand_mshr_misses::.cpu.inst          1298                       # number of demand (read+write) MSHR misses
system.l2.demand_mshr_misses::.cpu.data          4186                       # number of demand (read+write) MSHR misses
system.l2.demand_mshr_misses::total              5484                       # number of demand (read+write) MSHR misses
system.l2.overall_mshr_misses::.cpu.inst         1298                       # number of overall MSHR misses
system.l2.overall_mshr_misses::.cpu.data         4186                       # number of overall MSHR misses
system.l2.overall_mshr_misses::total             5484                       # number of overall MSHR misses
system.l2.demand_mshr_miss_latency::.cpu.inst     85341000                       # number of demand (read+write) MSHR miss cycles
system.l2.demand_mshr_miss_latency::.cpu.data    285700500                       # number of demand (read+write) MSHR miss cycles
system.l2.demand_mshr_miss_latency::total    371041500                       # number of demand (read+write) MSHR miss cycles
system.l2.overall_mshr_miss_latency::.cpu.inst     85341000                       # number of overall MSHR miss cycles
system.l2.overall_mshr_miss_latency::.cpu.data    285700500                       # number of overall MSHR miss cycles
system.l2.overall_mshr_miss_latency::total    371041500                       # number of overall MSHR miss cycles
system.l2.demand_mshr_miss_rate::.cpu.inst     0.354354                       # mshr miss rate for demand accesses
system.l2.demand_mshr_miss_rate::.cpu.data     0.062977                       # mshr miss rate for demand accesses
system.l2.demand_mshr_miss_rate::total       0.078195                       # mshr miss rate for demand accesses
system.l2.overall_mshr_miss_rate::.cpu.inst     0.354354                       # mshr miss rate for overall accesses
system.l2.overall_mshr_miss_rate::.cpu.data     0.062977                       # mshr miss rate for overall accesses
system.l2.overall_mshr_miss_rate::total      0.078195                       # mshr miss rate for overall accesses
system.l2.demand_avg_mshr_miss_latency::.cpu.inst 65748.073960                       # average overall mshr miss latency
system.l2.demand_avg_mshr_miss_latency::.cpu.data 68251.433349                       # average overall mshr miss latency
system.l2.demand_avg_mshr_miss_latency::total 67658.916849                       # average overall mshr miss latency
system.l2.overall_avg_mshr_miss_latency::.cpu.inst 65748.073960                       # average overall mshr miss latency
system.l2.overall_avg_mshr_miss_latency::.cpu.data 68251.433349                       # average overall mshr miss latency
system.l2.overall_avg_mshr_miss_latency::total 67658.916849                       # average overall mshr miss latency
system.l2.replacements                              0                       # number of replacements
system.l2.WritebackDirty_hits::.writebacks        63615                       # number of WritebackDirty hits
system.l2.WritebackDirty_hits::total            63615                       # number of WritebackDirty hits
system.l2.WritebackDirty_accesses::.writebacks        63615                       # number of WritebackDirty accesses(hits+misses)
system.l2.WritebackDirty_accesses::total        63615                       # number of WritebackDirty accesses(hits+misses)
system.l2.WritebackClean_hits::.writebacks         3066                       # number of WritebackClean hits
system.l2.WritebackClean_hits::total             3066                       # number of WritebackClean hits
system.l2.WritebackClean_accesses::.writebacks         3066                       # number of WritebackClean accesses(hits+misses)
system.l2.WritebackClean_accesses::total         3066                       # number of WritebackClean accesses(hits+misses)
system.l2.ReadExReq_hits::.cpu.data             49056                       # number of ReadExReq hits
system.l2.ReadExReq_hits::total                 49056                       # number of ReadExReq hits
system.l2.ReadExReq_misses::.cpu.data            3666                       # number of ReadExReq misses
system.l2.ReadExReq_misses::total                3666                       # number of ReadExReq misses
system.l2.ReadExReq_miss_latency::.cpu.data    286099500                       # number of ReadExReq miss cycles
system.l2.ReadExReq_miss_latency::total     286099500                       # number of ReadExReq miss cycles
system.l2.ReadExReq_accesses::.cpu.data         52722                       # number of ReadExReq accesses(hits+misses)
system.l2.ReadExReq_accesses::total             52722                       # number of ReadExReq accesses(hits+misses)
system.l2.ReadExReq_miss_rate::.cpu.data     0.069535                       # miss rate for ReadExReq accesses
system.l2.ReadExReq_miss_rate::total         0.069535                       # miss rate for ReadExReq accesses
system.l2.ReadExReq_avg_miss_latency::.cpu.data 78041.325696                       # average ReadExReq miss latency
system.l2.ReadExReq_avg_miss_latency::total 78041.325696                       # average ReadExReq miss latency
system.l2.ReadExReq_mshr_misses::.cpu.data         3666                       # number of ReadExReq MSHR misses
system.l2.ReadExReq_mshr_misses::total           3666                       # number of ReadExReq MSHR misses
system.l2.ReadExReq_mshr_miss_latency::.cpu.data    249439500                       # number of ReadExReq MSHR miss cycles
system.l2.ReadExReq_mshr_miss_latency::total    249439500                       # number of ReadExReq MSHR miss cycles
system.l2.ReadExReq_mshr_miss_rate::.cpu.data     0.069535                       # mshr miss rate for ReadExReq accesses
system.l2.ReadExReq_mshr_miss_rate::total     0.069535                       # mshr miss rate for ReadExReq accesses
system.l2.ReadExReq_avg_mshr_miss_latency::.cpu.data 68041.325696                       # average ReadExReq mshr miss latency
system.l2.ReadExReq_avg_mshr_miss_latency::total 68041.325696                       # average ReadExReq mshr miss latency
system.l2.ReadCleanReq_hits::.cpu.inst           2364                       # number of ReadCleanReq hits
system.l2.ReadCleanReq_hits::total               2364                       # number of ReadCleanReq hits
system.l2.ReadCleanReq_misses::.cpu.inst         1299                       # number of ReadCleanReq misses
system.l2.ReadCleanReq_misses::total             1299                       # number of ReadCleanReq misses
system.l2.ReadCleanReq_miss_latency::.cpu.inst     98384000                       # number of ReadCleanReq miss cycles
system.l2.ReadCleanReq_miss_latency::total     98384000                       # number of ReadCleanReq miss cycles
system.l2.ReadCleanReq_accesses::.cpu.inst         3663                       # number of ReadCleanReq accesses(hits+misses)
system.l2.ReadCleanReq_accesses::total           3663                       # number of ReadCleanReq accesses(hits+misses)
system.l2.ReadCleanReq_miss_rate::.cpu.inst     0.354627                       # miss rate for ReadCleanReq accesses
system.l2.ReadCleanReq_miss_rate::total      0.354627                       # miss rate for ReadCleanReq accesses
system.l2.ReadCleanReq_avg_miss_latency::.cpu.inst 75738.260200                       # average ReadCleanReq miss latency
system.l2.ReadCleanReq_avg_miss_latency::total 75738.260200                       # average ReadCleanReq miss latency
system.l2.ReadCleanReq_mshr_hits::.cpu.inst            1                       # number of ReadCleanReq MSHR hits
system.l2.ReadCleanReq_mshr_hits::total             1                       # number of ReadCleanReq MSHR hits
system.l2.ReadCleanReq_mshr_misses::.cpu.inst         1298                       # number of ReadCleanReq MSHR misses
system.l2.ReadCleanReq_mshr_misses::total         1298                       # number of ReadCleanReq MSHR misses
system.l2.ReadCleanReq_mshr_miss_latency::.cpu.inst     85341000                       # number of ReadCleanReq MSHR miss cycles
system.l2.ReadCleanReq_mshr_miss_latency::total     85341000                       # number of ReadCleanReq MSHR miss cycles
system.l2.ReadCleanReq_mshr_miss_rate::.cpu.inst     0.354354                       # mshr miss rate for ReadCleanReq accesses
system.l2.ReadCleanReq_mshr_miss_rate::total     0.354354                       # mshr miss rate for ReadCleanReq accesses
system.l2.ReadCleanReq_avg_mshr_miss_latency::.cpu.inst 65748.073960                       # average ReadCleanReq mshr miss latency
system.l2.ReadCleanReq_avg_mshr_miss_latency::total 65748.073960                       # average ReadCleanReq mshr miss latency
system.l2.ReadSharedReq_hits::.cpu.data         13221                       # number of ReadSharedReq hits
system.l2.ReadSharedReq_hits::total             13221                       # number of ReadSharedReq hits
system.l2.ReadSharedReq_misses::.cpu.data          526                       # number of ReadSharedReq misses
system.l2.ReadSharedReq_misses::total             526                       # number of ReadSharedReq misses
system.l2.ReadSharedReq_miss_latency::.cpu.data     41828000                       # number of ReadSharedReq miss cycles
system.l2.ReadSharedReq_miss_latency::total     41828000                       # number of ReadSharedReq miss cycles
system.l2.ReadSharedReq_accesses::.cpu.data        13747                       # number of ReadSharedReq accesses(hits+misses)
system.l2.ReadSharedReq_accesses::total         13747                       # number of ReadSharedReq accesses(hits+misses)
system.l2.ReadSharedReq_miss_rate::.cpu.data     0.038263                       # miss rate for ReadSharedReq accesses
system.l2.ReadSharedReq_miss_rate::total     0.038263                       # miss rate for ReadSharedReq accesses
system.l2.ReadSharedReq_avg_miss_latency::.cpu.data 79520.912548                       # average ReadSharedReq miss latency
system.l2.ReadSharedReq_avg_miss_latency::total 79520.912548                       # average ReadSharedReq miss latency
system.l2.ReadSharedReq_mshr_hits::.cpu.data            6                       # number of ReadSharedReq MSHR hits
system.l2.ReadSharedReq_mshr_hits::total            6                       # number of ReadSharedReq MSHR hits
system.l2.ReadSharedReq_mshr_misses::.cpu.data          520                       # number of ReadSharedReq MSHR misses
system.l2.ReadSharedReq_mshr_misses::total          520                       # number of ReadSharedReq MSHR misses
system.l2.ReadSharedReq_mshr_miss_latency::.cpu.data     36261000                       # number of ReadSharedReq MSHR miss cycles
system.l2.ReadSharedReq_mshr_miss_latency::total     36261000                       # number of ReadSharedReq MSHR miss cycles
system.l2.ReadSharedReq_mshr_miss_rate::.cpu.data     0.037826                       # mshr miss rate for ReadSharedReq accesses
system.l2.ReadSharedReq_mshr_miss_rate::total     0.037826                       # mshr miss rate for ReadSharedReq accesses
system.l2.ReadSharedReq_avg_mshr_miss_latency::.cpu.data 69732.692308                       # average ReadSharedReq mshr miss latency
system.l2.ReadSharedReq_avg_mshr_miss_latency::total 69732.692308                       # average ReadSharedReq mshr miss latency
system.l2.power_state.pwrStateResidencyTicks::UNDEFINED  59394859500                       # Cumulative time (in ticks) in various power states
system.l2.tags.tagsinuse                  5279.048652                       # Cycle average of tags in use
system.l2.tags.total_refs                      137890                       # Total number of references to valid blocks.
system.l2.tags.sampled_refs                      5484                       # Sample count of references to valid blocks.
system.l2.tags.avg_refs                     25.144055                       # Average number of references to valid blocks.
system.l2.tags.warmup_cycle                     76000                       # Cycle when the warmup percentage was hit.
system.l2.tags.occ_blocks::.cpu.inst      1291.656060                       # Average occupied blocks per requestor
system.l2.tags.occ_blocks::.cpu.data      3987.392592                       # Average occupied blocks per requestor
system.l2.tags.occ_percent::.cpu.inst        0.039418                       # Average percentage of cache occupancy
system.l2.tags.occ_percent::.cpu.data        0.121686                       # Average percentage of cache occupancy
system.l2.tags.occ_percent::total            0.161104                       # Average percentage of cache occupancy
system.l2.tags.occ_task_id_blocks::1024          5484                       # Occupied blocks per task id
system.l2.tags.age_task_id_blocks_1024::4         5484                       # Occupied blocks per task id
system.l2.tags.occ_task_id_percent::1024     0.167358                       # Percentage of cache occupancy per task id
system.l2.tags.tag_accesses                    143381                       # Number of tag accesses
system.l2.tags.data_accesses                   143381                       # Number of data accesses
system.l2.tags.power_state.pwrStateResidencyTicks::UNDEFINED  59394859500                       # Cumulative time (in ticks) in various power states
system.cpu_voltage_domain.voltage                   1                       # Voltage in Volts
system.mem_ctrls.avgPriority_.cpu.inst::samples      1298.00                       # Average QoS priority value for accepted requests
system.mem_ctrls.avgPriority_.cpu.data::samples      4186.00                       # Average QoS priority value for accepted requests
system.mem_ctrls.priorityMinLatency      0.000000017492                       # per QoS priority minimum request to response latency (s)
system.mem_ctrls.priorityMaxLatency      0.000000759812                       # per QoS priority maximum request to response latency (s)
system.mem_ctrls.numReadWriteTurnArounds            0                       # Number of turnarounds from READ to WRITE
system.mem_ctrls.numWriteReadTurnArounds            0                       # Number of turnarounds from WRITE to READ
system.mem_ctrls.numStayReadState               26217                       # Number of times bus staying in READ state
system.mem_ctrls.numStayWriteState                  0                       # Number of times bus staying in WRITE state
system.mem_ctrls.readReqs                        5484                       # Number of read requests accepted
system.mem_ctrls.writeReqs                          0                       # Number of write requests accepted
system.mem_ctrls.readBursts                      5484                       # Number of controller read bursts, including those serviced by the write queue
system.mem_ctrls.writeBursts                        0                       # Number of controller write bursts, including those merged in the write queue
system.mem_ctrls.servicedByWrQ                      0                       # Number of controller read bursts serviced by the write queue
system.mem_ctrls.mergedWrBursts                     0                       # Number of controller write bursts merged with an existing one
system.mem_ctrls.neitherReadNorWriteReqs            0                       # Number of requests that are neither read nor write
system.mem_ctrls.avgRdQLen                       1.00                       # Average read queue length when enqueuing
system.mem_ctrls.avgWrQLen                       0.00                       # Average write queue length when enqueuing
system.mem_ctrls.numRdRetry                         0                       # Number of times read queue was full causing retry
system.mem_ctrls.numWrRetry                         0                       # Number of times write queue was full causing retry
system.mem_ctrls.readPktSize::0                     0                       # Read request sizes (log2)
system.mem_ctrls.readPktSize::1                     0                       # Read request sizes (log2)
system.mem_ctrls.readPktSize::2                     0                       # Read request sizes (log2)
system.mem_ctrls.readPktSize::3                     0                       # Read request sizes (log2)
system.mem_ctrls.readPktSize::4                     0                       # Read request sizes (log2)
system.mem_ctrls.readPktSize::5                     0                       # Read request sizes (log2)
system.mem_ctrls.readPktSize::6                  5484                       # Read request sizes (log2)
system.mem_ctrls.writePktSize::0                    0                       # Write request sizes (log2)
system.mem_ctrls.writePktSize::1                    0                       # Write request sizes (log2)
system.mem_ctrls.writePktSize::2                    0                       # Write request sizes (log2)
system.mem_ctrls.writePktSize::3                    0                       # Write request sizes (log2)
system.mem_ctrls.writePktSize::4                    0                       # Write request sizes (log2)
system.mem_ctrls.writePktSize::5                    0                       # Write request sizes (log2)
system.mem_ctrls.writePktSize::6                    0                       # Write request sizes (log2)
system.mem_ctrls.rdQLenPdf::0                    5231                       # What read queue length does an incoming req see
system.mem_ctrls.rdQLenPdf::1                     230                       # What read queue length does an incoming req see
system.mem_ctrls.rdQLenPdf::2                      21                       # What read queue length does an incoming req see
system.mem_ctrls.rdQLenPdf::3                       2                       # What read queue length does an incoming req see
system.mem_ctrls.rdQLenPdf::4                       0                       # What read queue length does an incoming req see
system.mem_ctrls.rdQLenPdf::5                       0                       # What read queue length does an incoming req see
system.mem_ctrls.rdQLenPdf::6                       0                       # What read queue length does an incoming req see
system.mem_ctrls.rdQLenPdf::7                       0                       # What read queue length does an incoming req see
system.mem_ctrls.rdQLenPdf::8                       0                       # What read queue length does an incoming req see
system.mem_ctrls.rdQLenPdf::9                       0                       # What read queue length does an incoming req see
system.mem_ctrls.rdQLenPdf::10                      0                       # What read queue length does an incoming req see
system.mem_ctrls.rdQLenPdf::11                      0                       # What read queue length does an incoming req see
system.mem_ctrls.rdQLenPdf::12                      0                       # What read queue length does an incoming req see
system.mem_ctrls.rdQLenPdf::13                      0                       # What read queue length does an incoming req see
system.mem_ctrls.rdQLenPdf::14                      0                       # What read queue length does an incoming req see
system.mem_ctrls.rdQLenPdf::15                      0                       # What read queue length does an incoming req see
system.mem_ctrls.rdQLenPdf::16                      0                       # What read queue length does an incoming req see
system.mem_ctrls.rdQLenPdf::17                      0                       # What read queue length does an incoming req see
system.mem_ctrls.rdQLenPdf::18                      0                       # What read queue length does an incoming req see
system.mem_ctrls.rdQLenPdf::19                      0                       # What read queue length does an incoming req see
system.mem_ctrls.rdQLenPdf::20                      0                       # What read queue length does an incoming req see
system.mem_ctrls.rdQLenPdf::21                      0                       # What read queue length does an incoming req see
system.mem_ctrls.rdQLenPdf::22                      0                       # What read queue length does an incoming req see
system.mem_ctrls.rdQLenPdf::23                      0                       # What read queue length does an incoming req see
system.mem_ctrls.rdQLenPdf::24                      0                       # What read queue length does an incoming req see
system.mem_ctrls.rdQLenPdf::25                      0                       # What read queue length does an incoming req see
system.mem_ctrls.rdQLenPdf::26                      0                       # What read queue length does an incoming req see
system.mem_ctrls.rdQLenPdf::27                      0                       # What read queue length does an incoming req see
system.mem_ctrls.rdQLenPdf::28                      0                       # What read queue length does an incoming req see
system.mem_ctrls.rdQLenPdf::29                      0                       # What read queue length does an incoming req see
system.mem_ctrls.rdQLenPdf::30                      0                       # What read queue length does an incoming req see
system.mem_ctrls.rdQLenPdf::31                      0                       # What read queue length does an incoming req see
system.mem_ctrls.rdQLenPdf::32                      0                       # What read queue length does an incoming req see
system.mem_ctrls.rdQLenPdf::33                      0                       # What read queue length does an incoming req see
system.mem_ctrls.rdQLenPdf::34                      0                       # What read queue length does an incoming req see
system.mem_ctrls.rdQLenPdf::35                      0                       # What read queue length does an incoming req see
system.mem_ctrls.rdQLenPdf::36                      0                       # What read queue length does an incoming req see
system.mem_ctrls.rdQLenPdf::37                      0                       # What read queue length does an incoming req see
system.mem_ctrls.rdQLenPdf::38                      0                       # What read queue length does an incoming req see
system.mem_ctrls.rdQLenPdf::39                      0                       # What read queue length does an incoming req see
system.mem_ctrls.rdQLenPdf::40                      0                       # What read queue length does an incoming req see
system.mem_ctrls.rdQLenPdf::41                      0                       # What read queue length does an incoming req see
system.mem_ctrls.rdQLenPdf::42                      0                       # What read queue length does an incoming req see
system.mem_ctrls.rdQLenPdf::43                      0                       # What read queue length does an incoming req see
system.mem_ctrls.rdQLenPdf::44                      0                       # What read queue length does an incoming req see
system.mem_ctrls.rdQLenPdf::45                      0                       # What read queue length does an incoming req see
system.mem_ctrls.rdQLenPdf::46                      0                       # What read queue length does an incoming req see
system.mem_ctrls.rdQLenPdf::47                      0                       # What read queue length does an incoming req see
system.mem_ctrls.rdQLenPdf::48                      0                       # What read queue length does an incoming req see
system.mem_ctrls.rdQLenPdf::49                      0                       # What read queue length does an incoming req see
system.mem_ctrls.rdQLenPdf::50                      0                       # What read queue length does an incoming req see
system.mem_ctrls.rdQLenPdf::51                      0                       # What read queue length does an incoming req see
system.mem_ctrls.rdQLenPdf::52                      0                       # What read queue length does an incoming req see
system.mem_ctrls.rdQLenPdf::53                      0                       # What read queue length does an incoming req see
system.mem_ctrls.rdQLenPdf::54                      0                       # What read queue length does an incoming req see
system.mem_ctrls.rdQLenPdf::55                      0                       # What read queue length does an incoming req see
system.mem_ctrls.rdQLenPdf::56                      0                       # What read queue length does an incoming req see
system.mem_ctrls.rdQLenPdf::57                      0                       # What read queue length does an incoming req see
system.mem_ctrls.rdQLenPdf::58                      0                       # What read queue length does an incoming req see
system.mem_ctrls.rdQLenPdf::59                      0                       # What read queue length does an incoming req see
system.mem_ctrls.rdQLenPdf::60                      0                       # What read queue length does an incoming req see
system.mem_ctrls.rdQLenPdf::61                      0                       # What read queue length does an incoming req see
system.mem_ctrls.rdQLenPdf::62                      0                       # What read queue length does an incoming req see
system.mem_ctrls.rdQLenPdf::63                      0                       # What read queue length does an incoming req see
system.mem_ctrls.wrQLenPdf::0                       0                       # What write queue length does an incoming req see
system.mem_ctrls.wrQLenPdf::1                       0                       # What write queue length does an incoming req see
system.mem_ctrls.wrQLenPdf::2                       0                       # What write queue length does an incoming req see
system.mem_ctrls.wrQLenPdf::3                       0                       # What write queue length does an incoming req see
system.mem_ctrls.wrQLenPdf::4                       0                       # What write queue length does an incoming req see
system.mem_ctrls.wrQLenPdf::5                       0                       # What write queue length does an incoming req see
system.mem_ctrls.wrQLenPdf::6                       0                       # What write queue length does an incoming req see
system.mem_ctrls.wrQLenPdf::7                       0                       # What write queue length does an incoming req see
system.mem_ctrls.wrQLenPdf::8                       0                       # What write queue length does an incoming req see
system.mem_ctrls.wrQLenPdf::9                       0                       # What write queue length does an incoming req see
system.mem_ctrls.wrQLenPdf::10                      0                       # What write queue length does an incoming req see
system.mem_ctrls.wrQLenPdf::11                      0                       # What write queue length does an incoming req see
system.mem_ctrls.wrQLenPdf::12                      0                       # What write queue length does an incoming req see
system.mem_ctrls.wrQLenPdf::13                      0                       # What write queue length does an incoming req see
system.mem_ctrls.wrQLenPdf::14                      0                       # What write queue length does an incoming req see
system.mem_ctrls.wrQLenPdf::15                      0                       # What write queue length does an incoming req see
system.mem_ctrls.wrQLenPdf::16                      0                       # What write queue length does an incoming req see
system.mem_ctrls.wrQLenPdf::17                      0                       # What write queue length does an incoming req see
system.mem_ctrls.wrQLenPdf::18                      0                       # What write queue length does an incoming req see
system.mem_ctrls.wrQLenPdf::19                      0                       # What write queue length does an incoming req see
system.mem_ctrls.wrQLenPdf::20                      0                       # What write queue length does an incoming req see
system.mem_ctrls.wrQLenPdf::21                      0                       # What write queue length does an incoming req see
system.mem_ctrls.wrQLenPdf::22                      0                       # What write queue length does an incoming req see
system.mem_ctrls.wrQLenPdf::23                      0                       # What write queue length does an incoming req see
system.mem_ctrls.wrQLenPdf::24                      0                       # What write queue length does an incoming req see
system.mem_ctrls.wrQLenPdf::25                      0                       # What write queue length does an incoming req see
system.mem_ctrls.wrQLenPdf::26                      0                       # What write queue length does an incoming req see
system.mem_ctrls.wrQLenPdf::27                      0                       # What write queue length does an incoming req see
system.mem_ctrls.wrQLenPdf::28                      0                       # What write queue length does an incoming req see
system.mem_ctrls.wrQLenPdf::29                      0                       # What write queue length does an incoming req see
system.mem_ctrls.wrQLenPdf::30                      0                       # What write queue length does an incoming req see
system.mem_ctrls.wrQLenPdf::31                      0                       # What write queue length does an incoming req see
system.mem_ctrls.wrQLenPdf::32                      0                       # What write queue length does an incoming req see
system.mem_ctrls.wrQLenPdf::33                      0                       # What write queue length does an incoming req see
system.mem_ctrls.wrQLenPdf::34                      0                       # What write queue length does an incoming req see
system.mem_ctrls.wrQLenPdf::35                      0                       # What write queue length does an incoming req see
system.mem_ctrls.wrQLenPdf::36                      0                       # What write queue length does an incoming req see
system.mem_ctrls.wrQLenPdf::37                      0                       # What write queue length does an incoming req see
system.mem_ctrls.wrQLenPdf::38                      0                       # What write queue length does an incoming req see
system.mem_ctrls.wrQLenPdf::39                      0                       # What write queue length does an incoming req see
system.mem_ctrls.wrQLenPdf::40                      0                       # What write queue length does an incoming req see
system.mem_ctrls.wrQLenPdf::41                      0                       # What write queue length does an incoming req see
system.mem_ctrls.wrQLenPdf::42                      0                       # What write queue length does an incoming req see
system.mem_ctrls.wrQLenPdf::43                      0                       # What write queue length does an incoming req see
system.mem_ctrls.wrQLenPdf::44                      0                       # What write queue length does an incoming req see
system.mem_ctrls.wrQLenPdf::45                      0                       # What write queue length does an incoming req see
system.mem_ctrls.wrQLenPdf::46                      0                       # What write queue length does an incoming req see
system.mem_ctrls.wrQLenPdf::47                      0                       # What write queue length does an incoming req see
system.mem_ctrls.wrQLenPdf::48                      0                       # What write queue length does an incoming req see
system.mem_ctrls.wrQLenPdf::49                      0                       # What write queue length does an incoming req see
system.mem_ctrls.wrQLenPdf::50                      0                       # What write queue length does an incoming req see
system.mem_ctrls.wrQLenPdf::51                      0                       # What write queue length does an incoming req see
system.mem_ctrls.wrQLenPdf::52                      0                       # What write queue length does an incoming req see
system.mem_ctrls.wrQLenPdf::53                      0                       # What write queue length does an incoming req see
system.mem_ctrls.wrQLenPdf::54                      0                       # What write queue length does an incoming req see
system.mem_ctrls.wrQLenPdf::55                      0                       # What write queue length does an incoming req see
system.mem_ctrls.wrQLenPdf::56                      0                       # What write queue length does an incoming req see
system.mem_ctrls.wrQLenPdf::57                      0                       # What write queue length does an incoming req see
system.mem_ctrls.wrQLenPdf::58                      0                       # What write queue length does an incoming req see
system.mem_ctrls.wrQLenPdf::59                      0                       # What write queue length does an incoming req see
system.mem_ctrls.wrQLenPdf::60                      0                       # What write queue length does an incoming req see
system.mem_ctrls.wrQLenPdf::61                      0                       # What write queue length does an incoming req see
system.mem_ctrls.wrQLenPdf::62                      0                       # What write queue length does an incoming req see
system.mem_ctrls.wrQLenPdf::63                      0                       # What write queue length does an incoming req see
system.mem_ctrls.wrQLenPdf::64                      0                       # What write queue length does an incoming req see
system.mem_ctrls.wrQLenPdf::65                      0                       # What write queue length does an incoming req see
system.mem_ctrls.wrQLenPdf::66                      0                       # What write queue length does an incoming req see
system.mem_ctrls.wrQLenPdf::67                      0                       # What write queue length does an incoming req see
system.mem_ctrls.wrQLenPdf::68                      0                       # What write queue length does an incoming req see
system.mem_ctrls.wrQLenPdf::69                      0                       # What write queue length does an incoming req see
system.mem_ctrls.wrQLenPdf::70                      0                       # What write queue length does an incoming req see
system.mem_ctrls.wrQLenPdf::71                      0                       # What write queue length does an incoming req see
system.mem_ctrls.wrQLenPdf::72                      0                       # What write queue length does an incoming req see
system.mem_ctrls.wrQLenPdf::73                      0                       # What write queue length does an incoming req see
system.mem_ctrls.wrQLenPdf::74                      0                       # What write queue length does an incoming req see
system.mem_ctrls.wrQLenPdf::75                      0                       # What write queue length does an incoming req see
system.mem_ctrls.wrQLenPdf::76                      0                       # What write queue length does an incoming req see
system.mem_ctrls.wrQLenPdf::77                      0                       # What write queue length does an incoming req see
system.mem_ctrls.wrQLenPdf::78                      0                       # What write queue length does an incoming req see
system.mem_ctrls.wrQLenPdf::79                      0                       # What write queue length does an incoming req see
system.mem_ctrls.wrQLenPdf::80                      0                       # What write queue length does an incoming req see
system.mem_ctrls.wrQLenPdf::81                      0                       # What write queue length does an incoming req see
system.mem_ctrls.wrQLenPdf::82                      0                       # What write queue length does an incoming req see
system.mem_ctrls.wrQLenPdf::83                      0                       # What write queue length does an incoming req see
system.mem_ctrls.wrQLenPdf::84                      0                       # What write queue length does an incoming req see
system.mem_ctrls.wrQLenPdf::85                      0                       # What write queue length does an incoming req see
system.mem_ctrls.wrQLenPdf::86                      0                       # What write queue length does an incoming req see
system.mem_ctrls.wrQLenPdf::87                      0                       # What write queue length does an incoming req see
system.mem_ctrls.wrQLenPdf::88                      0                       # What write queue length does an incoming req see
system.mem_ctrls.wrQLenPdf::89                      0                       # What write queue length does an incoming req see
system.mem_ctrls.wrQLenPdf::90                      0                       # What write queue length does an incoming req see
system.mem_ctrls.wrQLenPdf::91                      0                       # What write queue length does an incoming req see
system.mem_ctrls.wrQLenPdf::92                      0                       # What write queue length does an incoming req see
system.mem_ctrls.wrQLenPdf::93                      0                       # What write queue length does an incoming req see
system.mem_ctrls.wrQLenPdf::94                      0                       # What write queue length does an incoming req see
system.mem_ctrls.wrQLenPdf::95                      0                       # What write queue length does an incoming req see
system.mem_ctrls.wrQLenPdf::96                      0                       # What write queue length does an incoming req see
system.mem_ctrls.wrQLenPdf::97                      0                       # What write queue length does an incoming req see
system.mem_ctrls.wrQLenPdf::98                      0                       # What write queue length does an incoming req see
system.mem_ctrls.wrQLenPdf::99                      0                       # What write queue length does an incoming req see
system.mem_ctrls.wrQLenPdf::100                     0                       # What write queue length does an incoming req see
system.mem_ctrls.wrQLenPdf::101                     0                       # What write queue length does an incoming req see
system.mem_ctrls.wrQLenPdf::102                     0                       # What write queue length does an incoming req see
system.mem_ctrls.wrQLenPdf::103                     0                       # What write queue length does an incoming req see
system.mem_ctrls.wrQLenPdf::104                     0                       # What write queue length does an incoming req see
system.mem_ctrls.wrQLenPdf::105                     0                       # What write queue length does an incoming req see
system.mem_ctrls.wrQLenPdf::106                     0                       # What write queue length does an incoming req see
system.mem_ctrls.wrQLenPdf::107                     0                       # What write queue length does an incoming req see
system.mem_ctrls.wrQLenPdf::108                     0                       # What write queue length does an incoming req see
system.mem_ctrls.wrQLenPdf::109                     0                       # What write queue length does an incoming req see
system.mem_ctrls.wrQLenPdf::110                     0                       # What write queue length does an incoming req see
system.mem_ctrls.wrQLenPdf::111                     0                       # What write queue length does an incoming req see
system.mem_ctrls.wrQLenPdf::112                     0                       # What write queue length does an incoming req see
system.mem_ctrls.wrQLenPdf::113                     0                       # What write queue length does an incoming req see
system.mem_ctrls.wrQLenPdf::114                     0                       # What write queue length does an incoming req see
system.mem_ctrls.wrQLenPdf::115                     0                       # What write queue length does an incoming req see
system.mem_ctrls.wrQLenPdf::116                     0                       # What write queue length does an incoming req see
system.mem_ctrls.wrQLenPdf::117                     0                       # What write queue length does an incoming req see
system.mem_ctrls.wrQLenPdf::118                     0                       # What write queue length does an incoming req see
system.mem_ctrls.wrQLenPdf::119                     0                       # What write queue length does an incoming req see
system.mem_ctrls.wrQLenPdf::120                     0                       # What write queue length does an incoming req see
system.mem_ctrls.wrQLenPdf::121                     0                       # What write queue length does an incoming req see
system.mem_ctrls.wrQLenPdf::122                     0                       # What write queue length does an incoming req see
system.mem_ctrls.wrQLenPdf::123                     0                       # What write queue length does an incoming req see
system.mem_ctrls.wrQLenPdf::124                     0                       # What write queue length does an incoming req see
system.mem_ctrls.wrQLenPdf::125                     0                       # What write queue length does an incoming req see
system.mem_ctrls.wrQLenPdf::126                     0                       # What write queue length does an incoming req see
system.mem_ctrls.wrQLenPdf::127                     0                       # What write queue length does an incoming req see
system.mem_ctrls.bytesReadWrQ                       0                       # Total number of bytes read from write queue
system.mem_ctrls.bytesReadSys                  350976                       # Total read bytes from the system interface side
system.mem_ctrls.bytesWrittenSys                    0                       # Total written bytes from the system interface side
system.mem_ctrls.avgRdBWSys                      5.91                       # Average system read bandwidth in MiByte/s
system.mem_ctrls.avgWrBWSys                      0.00                       # Average system write bandwidth in MiByte/s
system.mem_ctrls.totGap                   16107815500                       # Total gap between requests
system.mem_ctrls.avgGap                    2937238.42                       # Average gap between requests
system.mem_ctrls.requestorReadBytes::.cpu.inst        83072                       # Per-requestor bytes read from memory
system.mem_ctrls.requestorReadBytes::.cpu.data       267904                       # Per-requestor bytes read from memory
system.mem_ctrls.requestorReadRate::.cpu.inst 1398639.557350918651                       # Per-requestor bytes read from memory rate (Bytes/sec)
system.mem_ctrls.requestorReadRate::.cpu.data 4510558.695740327239                       # Per-requestor bytes read from memory rate (Bytes/sec)
system.mem_ctrls.requestorReadAccesses::.cpu.inst         1298                       # Per-requestor read serviced memory accesses
system.mem_ctrls.requestorReadAccesses::.cpu.data         4186                       # Per-requestor read serviced memory accesses
system.mem_ctrls.requestorReadTotalLat::.cpu.inst     31976024                       # Per-requestor read total memory access latency
system.mem_ctrls.requestorReadTotalLat::.cpu.data    113049630                       # Per-requestor read total memory access latency
system.mem_ctrls.requestorReadAvgLat::.cpu.inst     24634.84                       # Per-requestor read average memory access latency
system.mem_ctrls.requestorReadAvgLat::.cpu.data     27006.60                       # Per-requestor read average memory access latency
system.mem_ctrls.dram.bytes_read::.cpu.inst        83072                       # Number of bytes read from this memory
system.mem_ctrls.dram.bytes_read::.cpu.data       267904                       # Number of bytes read from this memory
system.mem_ctrls.dram.bytes_read::total        350976                       # Number of bytes read from this memory
system.mem_ctrls.dram.bytes_inst_read::.cpu.inst        83072                       # Number of instructions bytes read from this memory
system.mem_ctrls.dram.bytes_inst_read::total        83072                       # Number of instructions bytes read from this memory
system.mem_ctrls.dram.num_reads::.cpu.inst         1298                       # Number of read requests responded to by this memory
system.mem_ctrls.dram.num_reads::.cpu.data         4186                       # Number of read requests responded to by this memory
system.mem_ctrls.dram.num_reads::total           5484                       # Number of read requests responded to by this memory
system.mem_ctrls.dram.bw_read::.cpu.inst      1398640                       # Total read bandwidth from this memory (bytes/s)
system.mem_ctrls.dram.bw_read::.cpu.data      4510559                       # Total read bandwidth from this memory (bytes/s)
system.mem_ctrls.dram.bw_read::total          5909198                       # Total read bandwidth from this memory (bytes/s)
system.mem_ctrls.dram.bw_inst_read::.cpu.inst      1398640                       # Instruction read bandwidth from this memory (bytes/s)
system.mem_ctrls.dram.bw_inst_read::total      1398640                       # Instruction read bandwidth from this memory (bytes/s)
system.mem_ctrls.dram.bw_total::.cpu.inst      1398640                       # Total bandwidth to/from this memory (bytes/s)
system.mem_ctrls.dram.bw_total::.cpu.data      4510559                       # Total bandwidth to/from this memory (bytes/s)
system.mem_ctrls.dram.bw_total::total         5909198                       # Total bandwidth to/from this memory (bytes/s)
system.mem_ctrls.dram.readBursts                 5484                       # Number of DRAM read bursts
system.mem_ctrls.dram.writeBursts                   0                       # Number of DRAM write bursts
system.mem_ctrls.dram.perBankRdBursts::0          119                       # Per bank write bursts
system.mem_ctrls.dram.perBankRdBursts::1          142                       # Per bank write bursts
system.mem_ctrls.dram.perBankRdBursts::2           97                       # Per bank write bursts
system.mem_ctrls.dram.perBankRdBursts::3          214                       # Per bank write bursts
system.mem_ctrls.dram.perBankRdBursts::4          179                       # Per bank write bursts
system.mem_ctrls.dram.perBankRdBursts::5          245                       # Per bank write bursts
system.mem_ctrls.dram.perBankRdBursts::6          249                       # Per bank write bursts
system.mem_ctrls.dram.perBankRdBursts::7          272                       # Per bank write bursts
system.mem_ctrls.dram.perBankRdBursts::8          230                       # Per bank write bursts
system.mem_ctrls.dram.perBankRdBursts::9          238                       # Per bank write bursts
system.mem_ctrls.dram.perBankRdBursts::10          229                       # Per bank write bursts
system.mem_ctrls.dram.perBankRdBursts::11          144                       # Per bank write bursts
system.mem_ctrls.dram.perBankRdBursts::12          183                       # Per bank write bursts
system.mem_ctrls.dram.perBankRdBursts::13          168                       # Per bank write bursts
system.mem_ctrls.dram.perBankRdBursts::14          167                       # Per bank write bursts
system.mem_ctrls.dram.perBankRdBursts::15          154                       # Per bank write bursts
system.mem_ctrls.dram.perBankRdBursts::16          133                       # Per bank write bursts
system.mem_ctrls.dram.perBankRdBursts::17          130                       # Per bank write bursts
system.mem_ctrls.dram.perBankRdBursts::18          147                       # Per bank write bursts
system.mem_ctrls.dram.perBankRdBursts::19          189                       # Per bank write bursts
system.mem_ctrls.dram.perBankRdBursts::20          238                       # Per bank write bursts
system.mem_ctrls.dram.perBankRdBursts::21          128                       # Per bank write bursts
system.mem_ctrls.dram.perBankRdBursts::22          128                       # Per bank write bursts
system.mem_ctrls.dram.perBankRdBursts::23          128                       # Per bank write bursts
system.mem_ctrls.dram.perBankRdBursts::24          128                       # Per bank write bursts
system.mem_ctrls.dram.perBankRdBursts::25           53                       # Per bank write bursts
system.mem_ctrls.dram.perBankRdBursts::26          198                       # Per bank write bursts
system.mem_ctrls.dram.perBankRdBursts::27          144                       # Per bank write bursts
system.mem_ctrls.dram.perBankRdBursts::28          128                       # Per bank write bursts
system.mem_ctrls.dram.perBankRdBursts::29          171                       # Per bank write bursts
system.mem_ctrls.dram.perBankRdBursts::30          232                       # Per bank write bursts
system.mem_ctrls.dram.perBankRdBursts::31          179                       # Per bank write bursts
system.mem_ctrls.dram.perBankWrBursts::0            0                       # Per bank write bursts
system.mem_ctrls.dram.perBankWrBursts::1            0                       # Per bank write bursts
system.mem_ctrls.dram.perBankWrBursts::2            0                       # Per bank write bursts
system.mem_ctrls.dram.perBankWrBursts::3            0                       # Per bank write bursts
system.mem_ctrls.dram.perBankWrBursts::4            0                       # Per bank write bursts
system.mem_ctrls.dram.perBankWrBursts::5            0                       # Per bank write bursts
system.mem_ctrls.dram.perBankWrBursts::6            0                       # Per bank write bursts
system.mem_ctrls.dram.perBankWrBursts::7            0                       # Per bank write bursts
system.mem_ctrls.dram.perBankWrBursts::8            0                       # Per bank write bursts
system.mem_ctrls.dram.perBankWrBursts::9            0                       # Per bank write bursts
system.mem_ctrls.dram.perBankWrBursts::10            0                       # Per bank write bursts
system.mem_ctrls.dram.perBankWrBursts::11            0                       # Per bank write bursts
system.mem_ctrls.dram.perBankWrBursts::12            0                       # Per bank write bursts
system.mem_ctrls.dram.perBankWrBursts::13            0                       # Per bank write bursts
system.mem_ctrls.dram.perBankWrBursts::14            0                       # Per bank write bursts
system.mem_ctrls.dram.perBankWrBursts::15            0                       # Per bank write bursts
system.mem_ctrls.dram.perBankWrBursts::16            0                       # Per bank write bursts
system.mem_ctrls.dram.perBankWrBursts::17            0                       # Per bank write bursts
system.mem_ctrls.dram.perBankWrBursts::18            0                       # Per bank write bursts
system.mem_ctrls.dram.perBankWrBursts::19            0                       # Per bank write bursts
system.mem_ctrls.dram.perBankWrBursts::20            0                       # Per bank write bursts
system.mem_ctrls.dram.perBankWrBursts::21            0                       # Per bank write bursts
system.mem_ctrls.dram.perBankWrBursts::22            0                       # Per bank write bursts
system.mem_ctrls.dram.perBankWrBursts::23            0                       # Per bank write bursts
system.mem_ctrls.dram.perBankWrBursts::24            0                       # Per bank write bursts
system.mem_ctrls.dram.perBankWrBursts::25            0                       # Per bank write bursts
system.mem_ctrls.dram.perBankWrBursts::26            0                       # Per bank write bursts
system.mem_ctrls.dram.perBankWrBursts::27            0                       # Per bank write bursts
system.mem_ctrls.dram.perBankWrBursts::28            0                       # Per bank write bursts
system.mem_ctrls.dram.perBankWrBursts::29            0                       # Per bank write bursts
system.mem_ctrls.dram.perBankWrBursts::30            0                       # Per bank write bursts
system.mem_ctrls.dram.perBankWrBursts::31            0                       # Per bank write bursts
system.mem_ctrls.dram.totQLat                49099526                       # Total ticks spent queuing
system.mem_ctrls.dram.totBusLat              18272688                       # Total ticks spent in databus transfers
system.mem_ctrls.dram.totMemAccLat          145025654                       # Total ticks spent from burst creation until serviced by the DRAM
system.mem_ctrls.dram.avgQLat                 8953.23                       # Average queueing delay per DRAM burst
system.mem_ctrls.dram.avgBusLat               3332.00                       # Average bus latency per DRAM burst
system.mem_ctrls.dram.avgMemAccLat           26445.23                       # Average memory access latency per DRAM burst
system.mem_ctrls.dram.readRowHits                4419                       # Number of row buffer hits during reads
system.mem_ctrls.dram.writeRowHits                  0                       # Number of row buffer hits during writes
system.mem_ctrls.dram.readRowHitRate            80.58                       # Row buffer hit rate for reads
system.mem_ctrls.dram.writeRowHitRate             nan                       # Row buffer hit rate for writes
system.mem_ctrls.dram.bytesPerActivate::samples         1065                       # Bytes accessed per row activation
system.mem_ctrls.dram.bytesPerActivate::mean   329.554930                       # Bytes accessed per row activation
system.mem_ctrls.dram.bytesPerActivate::gmean   218.188811                       # Bytes accessed per row activation
system.mem_ctrls.dram.bytesPerActivate::stdev   304.574128                       # Bytes accessed per row activation
system.mem_ctrls.dram.bytesPerActivate::0-127          266     24.98%     24.98% # Bytes accessed per row activation
system.mem_ctrls.dram.bytesPerActivate::128-255          298     27.98%     52.96% # Bytes accessed per row activation
system.mem_ctrls.dram.bytesPerActivate::256-383          123     11.55%     64.51% # Bytes accessed per row activation
system.mem_ctrls.dram.bytesPerActivate::384-511          176     16.53%     81.03% # Bytes accessed per row activation
system.mem_ctrls.dram.bytesPerActivate::512-639           29      2.72%     83.76% # Bytes accessed per row activation
system.mem_ctrls.dram.bytesPerActivate::640-767           22      2.07%     85.82% # Bytes accessed per row activation
system.mem_ctrls.dram.bytesPerActivate::768-895           16      1.50%     87.32% # Bytes accessed per row activation
system.mem_ctrls.dram.bytesPerActivate::896-1023           18      1.69%     89.01% # Bytes accessed per row activation
system.mem_ctrls.dram.bytesPerActivate::1024-1151          117     10.99%    100.00% # Bytes accessed per row activation
system.mem_ctrls.dram.bytesPerActivate::total         1065                       # Bytes accessed per row activation
system.mem_ctrls.dram.bytesRead                350976                       # Total number of bytes read from DRAM
system.mem_ctrls.dram.bytesWritten                  0                       # Total number of bytes written to DRAM
system.mem_ctrls.dram.avgRdBW                5.909198                       # Average DRAM read bandwidth in MiBytes/s
system.mem_ctrls.dram.avgWrBW                       0                       # Average DRAM write bandwidth in MiBytes/s
system.mem_ctrls.dram.peakBW                 19207.00                       # Theoretical peak bandwidth in MiByte/s
system.mem_ctrls.dram.busUtil                    0.03                       # Data bus utilization in percentage
system.mem_ctrls.dram.busUtilRead                0.03                       # Data bus utilization in percentage for reads
system.mem_ctrls.dram.busUtilWrite               0.00                       # Data bus utilization in percentage for writes
system.mem_ctrls.dram.pageHitRate               80.58                       # Row buffer hit rate, read and write combined
system.mem_ctrls.dram.rank1.actEnergy    586325.376000                       # Energy for activate commands per rank (pJ)
system.mem_ctrls.dram.rank1.preEnergy    1035089.798400                       # Energy for precharge commands per rank (pJ)
system.mem_ctrls.dram.rank1.readEnergy   6731082.489600                       # Energy for read commands per rank (pJ)
system.mem_ctrls.dram.rank1.writeEnergy             0                       # Energy for write commands per rank (pJ)
[...]
system.cpu.dcache.ReadReq_avg_mshr_miss_latency::total 14306.527492                       # average ReadReq mshr miss latency
system.cpu.dcache.WriteReq_hits::.cpu.data      6263233                       # number of WriteReq hits
system.cpu.dcache.WriteReq_hits::total        6263233                       # number of WriteReq hits
system.cpu.dcache.WriteReq_misses::.cpu.data        57615                       # number of WriteReq misses
system.cpu.dcache.WriteReq_misses::total        57615                       # number of WriteReq misses
system.cpu.dcache.WriteReq_miss_latency::.cpu.data   1155340000                       # number of WriteReq miss cycles
system.cpu.dcache.WriteReq_miss_latency::total   1155340000                       # number of WriteReq miss cycles
system.cpu.dcache.WriteReq_accesses::.cpu.data      6320848                       # number of WriteReq accesses(hits+misses)
system.cpu.dcache.WriteReq_accesses::total      6320848                       # number of WriteReq accesses(hits+misses)
system.cpu.dcache.WriteReq_miss_rate::.cpu.data     0.009115                       # miss rate for WriteReq accesses
system.cpu.dcache.WriteReq_miss_rate::total     0.009115                       # miss rate for WriteReq accesses
system.cpu.dcache.WriteReq_avg_miss_latency::.cpu.data 20052.764037                       # average WriteReq miss latency
system.cpu.dcache.WriteReq_avg_miss_latency::total 20052.764037                       # average WriteReq miss latency
system.cpu.dcache.WriteReq_mshr_hits::.cpu.data         4893                       # number of WriteReq MSHR hits
system.cpu.dcache.WriteReq_mshr_hits::total         4893                       # number of WriteReq MSHR hits
system.cpu.dcache.WriteReq_mshr_misses::.cpu.data        52722                       # number of WriteReq MSHR misses
system.cpu.dcache.WriteReq_mshr_misses::total        52722                       # number of WriteReq MSHR misses
system.cpu.dcache.WriteReq_mshr_miss_latency::.cpu.data    881284500                       # number of WriteReq MSHR miss cycles
system.cpu.dcache.WriteReq_mshr_miss_latency::total    881284500                       # number of WriteReq MSHR miss cycles
system.cpu.dcache.WriteReq_mshr_miss_rate::.cpu.data     0.008341                       # mshr miss rate for WriteReq accesses
system.cpu.dcache.WriteReq_mshr_miss_rate::total     0.008341                       # mshr miss rate for WriteReq accesses
system.cpu.dcache.WriteReq_avg_mshr_miss_latency::.cpu.data 16715.687948                       # average WriteReq mshr miss latency
system.cpu.dcache.WriteReq_avg_mshr_miss_latency::total 16715.687948                       # average WriteReq mshr miss latency
system.cpu.dcache.SoftPFReq_hits::.cpu.data         8562                       # number of SoftPFReq hits
system.cpu.dcache.SoftPFReq_hits::total          8562                       # number of SoftPFReq hits
system.cpu.dcache.SoftPFReq_misses::.cpu.data          153                       # number of SoftPFReq misses
system.cpu.dcache.SoftPFReq_misses::total          153                       # number of SoftPFReq misses
system.cpu.dcache.SoftPFReq_accesses::.cpu.data         8715                       # number of SoftPFReq accesses(hits+misses)
system.cpu.dcache.SoftPFReq_accesses::total         8715                       # number of SoftPFReq accesses(hits+misses)
system.cpu.dcache.SoftPFReq_miss_rate::.cpu.data     0.017556                       # miss rate for SoftPFReq accesses
system.cpu.dcache.SoftPFReq_miss_rate::total     0.017556                       # miss rate for SoftPFReq accesses
system.cpu.dcache.SoftPFReq_mshr_misses::.cpu.data          142                       # number of SoftPFReq MSHR misses
system.cpu.dcache.SoftPFReq_mshr_misses::total          142                       # number of SoftPFReq MSHR misses
system.cpu.dcache.SoftPFReq_mshr_miss_latency::.cpu.data      7406500                       # number of SoftPFReq MSHR miss cycles
system.cpu.dcache.SoftPFReq_mshr_miss_latency::total      7406500                       # number of SoftPFReq MSHR miss cycles
system.cpu.dcache.SoftPFReq_mshr_miss_rate::.cpu.data     0.016294                       # mshr miss rate for SoftPFReq accesses
system.cpu.dcache.SoftPFReq_mshr_miss_rate::total     0.016294                       # mshr miss rate for SoftPFReq accesses
system.cpu.dcache.SoftPFReq_avg_mshr_miss_latency::.cpu.data 52158.450704                       # average SoftPFReq mshr miss latency
system.cpu.dcache.SoftPFReq_avg_mshr_miss_latency::total 52158.450704                       # average SoftPFReq mshr miss latency
system.cpu.dcache.LoadLockedReq_hits::.cpu.data          165                       # number of LoadLockedReq hits
system.cpu.dcache.LoadLockedReq_hits::total          165                       # number of LoadLockedReq hits
system.cpu.dcache.LoadLockedReq_misses::.cpu.data            1                       # number of LoadLockedReq misses
system.cpu.dcache.LoadLockedReq_misses::total            1                       # number of LoadLockedReq misses
system.cpu.dcache.LoadLockedReq_miss_latency::.cpu.data        85000                       # number of LoadLockedReq miss cycles
system.cpu.dcache.LoadLockedReq_miss_latency::total        85000                       # number of LoadLockedReq miss cycles
system.cpu.dcache.LoadLockedReq_accesses::.cpu.data          166                       # number of LoadLockedReq accesses(hits+misses)
system.cpu.dcache.LoadLockedReq_accesses::total          166                       # number of LoadLockedReq accesses(hits+misses)
system.cpu.dcache.LoadLockedReq_miss_rate::.cpu.data     0.006024                       # miss rate for LoadLockedReq accesses
system.cpu.dcache.LoadLockedReq_miss_rate::total     0.006024                       # miss rate for LoadLockedReq accesses
system.cpu.dcache.LoadLockedReq_avg_miss_latency::.cpu.data        85000                       # average LoadLockedReq miss latency
system.cpu.dcache.LoadLockedReq_avg_miss_latency::total        85000                       # average LoadLockedReq miss latency
system.cpu.dcache.LoadLockedReq_mshr_misses::.cpu.data            1                       # number of LoadLockedReq MSHR misses
system.cpu.dcache.LoadLockedReq_mshr_misses::total            1                       # number of LoadLockedReq MSHR misses
system.cpu.dcache.LoadLockedReq_mshr_miss_latency::.cpu.data        84000                       # number of LoadLockedReq MSHR miss cycles
system.cpu.dcache.LoadLockedReq_mshr_miss_latency::total        84000                       # number of LoadLockedReq MSHR miss cycles
system.cpu.dcache.LoadLockedReq_mshr_miss_rate::.cpu.data     0.006024                       # mshr miss rate for LoadLockedReq accesses
system.cpu.dcache.LoadLockedReq_mshr_miss_rate::total     0.006024                       # mshr miss rate for LoadLockedReq accesses
system.cpu.dcache.LoadLockedReq_avg_mshr_miss_latency::.cpu.data        84000                       # average LoadLockedReq mshr miss latency
system.cpu.dcache.LoadLockedReq_avg_mshr_miss_latency::total        84000                       # average LoadLockedReq mshr miss latency
system.cpu.dcache.StoreCondReq_hits::.cpu.data          166                       # number of StoreCondReq hits
system.cpu.dcache.StoreCondReq_hits::total          166                       # number of StoreCondReq hits
system.cpu.dcache.StoreCondReq_accesses::.cpu.data          166                       # number of StoreCondReq accesses(hits+misses)
system.cpu.dcache.StoreCondReq_accesses::total          166                       # number of StoreCondReq accesses(hits+misses)
system.cpu.dcache.power_state.pwrStateResidencyTicks::UNDEFINED  59394859500                       # Cumulative time (in ticks) in various power states
system.cpu.dcache.tags.tagsinuse          1013.561638                       # Cycle average of tags in use
system.cpu.dcache.tags.total_refs            43911985                       # Total number of references to valid blocks.
system.cpu.dcache.tags.sampled_refs             66469                       # Sample count of references to valid blocks.
system.cpu.dcache.tags.avg_refs            660.638568                       # Average number of references to valid blocks.
system.cpu.dcache.tags.warmup_cycle            174500                       # Cycle when the warmup percentage was hit.
system.cpu.dcache.tags.occ_blocks::.cpu.data  1013.561638                       # Average occupied blocks per requestor
system.cpu.dcache.tags.occ_percent::.cpu.data     0.989806                       # Average percentage of cache occupancy
system.cpu.dcache.tags.occ_percent::total     0.989806                       # Average percentage of cache occupancy
system.cpu.dcache.tags.occ_task_id_blocks::1024         1024                       # Occupied blocks per task id
system.cpu.dcache.tags.age_task_id_blocks_1024::0            7                       # Occupied blocks per task id
system.cpu.dcache.tags.age_task_id_blocks_1024::1          135                       # Occupied blocks per task id
system.cpu.dcache.tags.age_task_id_blocks_1024::2          616                       # Occupied blocks per task id
system.cpu.dcache.tags.age_task_id_blocks_1024::3          254                       # Occupied blocks per task id
system.cpu.dcache.tags.age_task_id_blocks_1024::4           12                       # Occupied blocks per task id
system.cpu.dcache.tags.occ_task_id_percent::1024            1                       # Percentage of cache occupancy per task id
system.cpu.dcache.tags.tag_accesses          87900467                       # Number of tag accesses
system.cpu.dcache.tags.data_accesses         87900467                       # Number of data accesses
system.cpu.dcache.tags.power_state.pwrStateResidencyTicks::UNDEFINED  59394859500                       # Cumulative time (in ticks) in various power states
system.cpu.power_state.pwrStateResidencyTicks::ON  59394859500                       # Cumulative time (in ticks) in various power states
system.cpu.branchPred.lookups                 6501999                       # Number of BP lookups
system.cpu.branchPred.condPredicted           5093798                       # Number of conditional branches predicted
system.cpu.branchPred.condIncorrect            349140                       # Number of conditional branches incorrect
system.cpu.branchPred.BTBLookups              4083909                       # Number of BTB lookups
system.cpu.branchPred.BTBHits                 4076644                       # Number of BTB hits
system.cpu.branchPred.BTBHitPct             99.822107                       # BTB Hit Percentage
system.cpu.branchPred.RASUsed                  312588                       # Number of times the RAS was used to get a target.
system.cpu.branchPred.RASIncorrect                  3                       # Number of incorrect RAS predictions.
system.cpu.branchPred.indirectLookups          675684                       # Number of indirect predictor lookups.
system.cpu.branchPred.indirectHits             102890                       # Number of indirect target hits.
system.cpu.branchPred.indirectMisses           572794                       # Number of indirect misses.
system.cpu.branchPred.indirectMispredicted        37440                       # Number of mispredicted indirect branches.
system.cpu.fetch2.intInstructions            48868501                       # Number of integer instructions successfully decoded
system.cpu.fetch2.fpInstructions                    0                       # Number of floating point instructions successfully decoded
system.cpu.fetch2.vecInstructions                   0                       # Number of SIMD instructions successfully decoded
system.cpu.fetch2.loadInstructions           40553005                       # Number of memory load instructions successfully decoded
system.cpu.fetch2.storeInstructions           6265832                       # Number of memory store instructions successfully decoded
system.cpu.fetch2.amoInstructions                   0                       # Number of memory atomic instructions successfully decoded
system.cpu.itb.instHits                             0                       # ITB inst hits
system.cpu.itb.instMisses                           0                       # ITB inst misses
system.cpu.itb.readHits                             0                       # DTB read hits
system.cpu.itb.readMisses                           0                       # DTB read misses
system.cpu.itb.writeHits                            0                       # DTB write hits
system.cpu.itb.writeMisses                          0                       # DTB write misses
system.cpu.itb.inserts                              0                       # Number of times an entry is inserted into the TLB
system.cpu.itb.flushTlb                             0                       # Number of times complete TLB was flushed
system.cpu.itb.flushTlbMva                          0                       # Number of times TLB was flushed by MVA
system.cpu.itb.flushTlbMvaAsid                      0                       # Number of times TLB was flushed by MVA & ASID
system.cpu.itb.flushTlbAsid                         0                       # Number of times TLB was flushed by ASID
system.cpu.itb.flushedEntries                       0                       # Number of entries that have been flushed from TLB
system.cpu.itb.alignFaults                          0                       # Number of TLB faults due to alignment restrictions
system.cpu.itb.prefetchFaults                       0                       # Number of TLB faults due to prefetch
system.cpu.itb.domainFaults                         0                       # Number of TLB faults due to domain restrictions
system.cpu.itb.permsFaults                          0                       # Number of TLB faults due to permissions restrictions
system.cpu.itb.readAccesses                         0                       # DTB read accesses
system.cpu.itb.writeAccesses                        0                       # DTB write accesses
system.cpu.itb.instAccesses                         0                       # ITB inst accesses
system.cpu.itb.hits                                 0                       # Total TLB (inst and data) hits
system.cpu.itb.misses                               0                       # Total TLB (inst and data) misses
system.cpu.itb.accesses                             0                       # Total TLB (inst and data) accesses
system.cpu.itb.walker.walks                         0                       # Table walker walks requested
system.cpu.itb.walker.requestOrigin_Requested::Data            0                       # Table walker requests started/completed, data/inst
system.cpu.itb.walker.requestOrigin_Requested::Inst            0                       # Table walker requests started/completed, data/inst
system.cpu.itb.walker.requestOrigin_Requested::total            0                       # Table walker requests started/completed, data/inst
system.cpu.itb.walker.requestOrigin_Completed::Data            0                       # Table walker requests started/completed, data/inst
system.cpu.itb.walker.requestOrigin_Completed::Inst            0                       # Table walker requests started/completed, data/inst
system.cpu.itb.walker.requestOrigin_Completed::total            0                       # Table walker requests started/completed, data/inst
system.cpu.itb.walker.requestOrigin::total            0                       # Table walker requests started/completed, data/inst
system.cpu.itb.walker.power_state.pwrStateResidencyTicks::UNDEFINED  59394859500                       # Cumulative time (in ticks) in various power states
system.cpu.itb.stage2_mmu.stage2_tlb.instHits            0                       # ITB inst hits
system.cpu.itb.stage2_mmu.stage2_tlb.instMisses            0                       # ITB inst misses
system.cpu.itb.stage2_mmu.stage2_tlb.readHits            0                       # DTB read hits
system.cpu.itb.stage2_mmu.stage2_tlb.readMisses            0                       # DTB read misses
system.cpu.itb.stage2_mmu.stage2_tlb.writeHits            0                       # DTB write hits
system.cpu.itb.stage2_mmu.stage2_tlb.writeMisses            0                       # DTB write misses
system.cpu.itb.stage2_mmu.stage2_tlb.inserts            0                       # Number of times an entry is inserted into the TLB
system.cpu.itb.stage2_mmu.stage2_tlb.flushTlb            0                       # Number of times complete TLB was flushed
system.cpu.itb.stage2_mmu.stage2_tlb.flushTlbMva            0                       # Number of times TLB was flushed by MVA
system.cpu.itb.stage2_mmu.stage2_tlb.flushTlbMvaAsid            0                       # Number of times TLB was flushed by MVA & ASID
system.cpu.itb.stage2_mmu.stage2_tlb.flushTlbAsid            0                       # Number of times TLB was flushed by ASID
system.cpu.itb.stage2_mmu.stage2_tlb.flushedEntries            0                       # Number of entries that have been flushed from TLB
system.cpu.itb.stage2_mmu.stage2_tlb.alignFaults            0                       # Number of TLB faults due to alignment restrictions
system.cpu.itb.stage2_mmu.stage2_tlb.prefetchFaults            0                       # Number of TLB faults due to prefetch
system.cpu.itb.stage2_mmu.stage2_tlb.domainFaults            0                       # Number of TLB faults due to domain restrictions
system.cpu.itb.stage2_mmu.stage2_tlb.permsFaults            0                       # Number of TLB faults due to permissions restrictions
system.cpu.itb.stage2_mmu.stage2_tlb.readAccesses            0                       # DTB read accesses
system.cpu.itb.stage2_mmu.stage2_tlb.writeAccesses            0                       # DTB write accesses
system.cpu.itb.stage2_mmu.stage2_tlb.instAccesses            0                       # ITB inst accesses
system.cpu.itb.stage2_mmu.stage2_tlb.hits            0                       # Total TLB (inst and data) hits
system.cpu.itb.stage2_mmu.stage2_tlb.misses            0                       # Total TLB (inst and data) misses
system.cpu.itb.stage2_mmu.stage2_tlb.accesses            0                       # Total TLB (inst and data) accesses
system.cpu.itb.stage2_mmu.stage2_tlb.walker.walks            0                       # Table walker walks requested
system.cpu.itb.stage2_mmu.stage2_tlb.walker.requestOrigin_Requested::Data            0                       # Table walker requests started/completed, data/inst
system.cpu.itb.stage2_mmu.stage2_tlb.walker.requestOrigin_Requested::Inst            0                       # Table walker requests started/completed, data/inst
system.cpu.itb.stage2_mmu.stage2_tlb.walker.requestOrigin_Requested::total            0                       # Table walker requests started/completed, data/inst
system.cpu.itb.stage2_mmu.stage2_tlb.walker.requestOrigin_Completed::Data            0                       # Table walker requests started/completed, data/inst
system.cpu.itb.stage2_mmu.stage2_tlb.walker.requestOrigin_Completed::Inst            0                       # Table walker requests started/completed, data/inst
system.cpu.itb.stage2_mmu.stage2_tlb.walker.requestOrigin_Completed::total            0                       # Table walker requests started/completed, data/inst
system.cpu.itb.stage2_mmu.stage2_tlb.walker.requestOrigin::total            0                       # Table walker requests started/completed, data/inst
system.cpu.itb.stage2_mmu.stage2_tlb.walker.power_state.pwrStateResidencyTicks::UNDEFINED  59394859500                       # Cumulative time (in ticks) in various power states

---------- End Simulation Statistics   ----------
