
---------- Begin Simulation Statistics ----------
final_tick                                62386363500                       # Number of ticks from beginning of simulation (restored from checkpoints and never reset)
host_inst_rate                                 304924                       # Simulator instruction rate (inst/s)
host_mem_usage                                 688624                       # Number of bytes of host memory used
host_op_rate                                   333683                       # Simulator op (including micro ops) rate (op/s)
host_seconds                                   327.95                       # Real time elapsed on the host
host_tick_rate                              190231147                       # Simulator tick rate (ticks/s)
sim_freq                                 1000000000000                       # Frequency of simulated ticks
sim_insts                                   100000001                       # Number of instructions simulated
sim_ops                                     109431277                       # Number of ops (including micro ops) simulated
sim_seconds                                  0.062386                       # Number of seconds simulated
sim_ticks                                 62386363500                       # Number of ticks simulated
system.cpu.committedInsts                   100000001                       # Number of instructions committed
system.cpu.committedOps                     109431277                       # Number of ops (including micro ops) committed
system.cpu.cpi                               1.247727                       # CPI: cycles per instruction
system.cpu.discardedOps                        376212                       # Number of ops (including micro ops) which were discarded before commit
system.cpu.idleCycles                        10413445                       # Total number of cycles that the object has spent stopped
system.cpu.ipc                               0.801457                       # IPC: instructions per cycle
system.cpu.numCycles                        124772727                       # number of cpu cycles simulated
system.cpu.numFetchSuspends                         0                       # Number of times Execute suspended instruction fetching
system.cpu.numWorkItemsCompleted                    0                       # number of work items this cpu completed
system.cpu.numWorkItemsStarted                      0                       # number of work items this cpu started
system.cpu.op_class_0::No_OpClass                   0      0.00%      0.00% # Class of committed instruction
system.cpu.op_class_0::IntAlu                72955010     66.67%     66.67% # Class of committed instruction
system.cpu.op_class_0::IntMult                 568364      0.52%     67.19% # Class of committed instruction
system.cpu.op_class_0::IntDiv                       0      0.00%     67.19% # Class of committed instruction
system.cpu.op_class_0::FloatAdd                     0      0.00%     67.19% # Class of committed instruction
system.cpu.op_class_0::FloatCmp                     0      0.00%     67.19% # Class of committed instruction
system.cpu.op_class_0::FloatCvt                     0      0.00%     67.19% # Class of committed instruction
system.cpu.op_class_0::FloatMult                    0      0.00%     67.19% # Class of committed instruction
system.cpu.op_class_0::FloatMultAcc                 0      0.00%     67.19% # Class of committed instruction
system.cpu.op_class_0::FloatDiv                     0      0.00%     67.19% # Class of committed instruction
system.cpu.op_class_0::FloatMisc                    0      0.00%     67.19% # Class of committed instruction
system.cpu.op_class_0::FloatSqrt                    0      0.00%     67.19% # Class of committed instruction
system.cpu.op_class_0::SimdAdd                 241336      0.22%     67.41% # Class of committed instruction
system.cpu.op_class_0::SimdAddAcc                   0      0.00%     67.41% # Class of committed instruction
system.cpu.op_class_0::SimdAlu                 154628      0.14%     67.55% # Class of committed instruction
system.cpu.op_class_0::SimdCmp                 120668      0.11%     67.66% # Class of committed instruction
system.cpu.op_class_0::SimdCvt                      0      0.00%     67.66% # Class of committed instruction
system.cpu.op_class_0::SimdMisc                 44543      0.04%     67.70% # Class of committed instruction
system.cpu.op_class_0::SimdMult                     0      0.00%     67.70% # Class of committed instruction
system.cpu.op_class_0::SimdMultAcc                  0      0.00%     67.70% # Class of committed instruction
system.cpu.op_class_0::SimdShift                    0      0.00%     67.70% # Class of committed instruction
system.cpu.op_class_0::SimdShiftAcc                 0      0.00%     67.70% # Class of committed instruction
system.cpu.op_class_0::SimdDiv                      0      0.00%     67.70% # Class of committed instruction
system.cpu.op_class_0::SimdSqrt                     0      0.00%     67.70% # Class of committed instruction
system.cpu.op_class_0::SimdFloatAdd                 0      0.00%     67.70% # Class of committed instruction
system.cpu.op_class_0::SimdFloatAlu                 0      0.00%     67.70% # Class of committed instruction
system.cpu.op_class_0::SimdFloatCmp                 0      0.00%     67.70% # Class of committed instruction
system.cpu.op_class_0::SimdFloatCvt                 0      0.00%     67.70% # Class of committed instruction
system.cpu.op_class_0::SimdFloatDiv                 0      0.00%     67.70% # Class of committed instruction
system.cpu.op_class_0::SimdFloatMisc           166417      0.15%     67.85% # Class of committed instruction
system.cpu.op_class_0::SimdFloatMult                0      0.00%     67.85% # Class of committed instruction
system.cpu.op_class_0::SimdFloatMultAcc             0      0.00%     67.85% # Class of committed instruction
system.cpu.op_class_0::SimdFloatSqrt                0      0.00%     67.85% # Class of committed instruction
system.cpu.op_class_0::SimdReduceAdd                0      0.00%     67.85% # Class of committed instruction
system.cpu.op_class_0::SimdReduceAlu                0      0.00%     67.85% # Class of committed instruction
system.cpu.op_class_0::SimdReduceCmp                0      0.00%     67.85% # Class of committed instruction
system.cpu.op_class_0::SimdFloatReduceAdd            0      0.00%     67.85% # Class of committed instruction
system.cpu.op_class_0::SimdFloatReduceCmp            0      0.00%     67.85% # Class of committed instruction
system.cpu.op_class_0::SimdAes                      0      0.00%     67.85% # Class of committed instruction
system.cpu.op_class_0::SimdAesMix                   0      0.00%     67.85% # Class of committed instruction
system.cpu.op_class_0::SimdSha1Hash                 0      0.00%     67.85% # Class of committed instruction
system.cpu.op_class_0::SimdSha1Hash2                0      0.00%     67.85% # Class of committed instruction
system.cpu.op_class_0::SimdSha256Hash               0      0.00%     67.85% # Class of committed instruction
system.cpu.op_class_0::SimdSha256Hash2              0      0.00%     67.85% # Class of committed instruction
system.cpu.op_class_0::SimdShaSigma2                0      0.00%     67.85% # Class of committed instruction
system.cpu.op_class_0::SimdShaSigma3                0      0.00%     67.85% # Class of committed instruction
system.cpu.op_class_0::SimdPredAlu                  0      0.00%     67.85% # Class of committed instruction
system.cpu.op_class_0::MemRead               20645992     18.87%     86.72% # Class of committed instruction
system.cpu.op_class_0::MemWrite              14534319     13.28%    100.00% # Class of committed instruction
system.cpu.op_class_0::FloatMemRead                 0      0.00%    100.00% # Class of committed instruction
system.cpu.op_class_0::FloatMemWrite                0      0.00%    100.00% # Class of committed instruction
system.cpu.op_class_0::IprAccess                    0      0.00%    100.00% # Class of committed instruction
system.cpu.op_class_0::InstPrefetch                 0      0.00%    100.00% # Class of committed instruction
system.cpu.op_class_0::total                109431277                       # Class of committed instruction
system.cpu.tickCycles                       114359282                       # Number of cycles that the object actually ticked
system.cpu.workload.numSyscalls                    87                       # Number of system calls
system.membus.snoop_filter.hit_multi_requests            0                       # Number of requests hitting in the snoop filter with multiple (>1) holders of the requested data.
system.membus.snoop_filter.hit_multi_snoops            0                       # Number of snoops hitting in the snoop filter with multiple (>1) holders of the requested data.
system.membus.snoop_filter.hit_single_requests        12876                       # Number of requests hitting in the snoop filter with a single holder of the requested data.
system.membus.snoop_filter.hit_single_snoops            0                       # Number of snoops hitting in the snoop filter with a single holder of the requested data.
system.membus.snoop_filter.tot_requests         91971                       # Total number of requests made to the snoop filter.
system.membus.snoop_filter.tot_snoops               0                       # Total number of snoops made to the snoop filter.
system.tol2bus.snoop_filter.hit_multi_requests           18                       # Number of requests hitting in the snoop filter with multiple (>1) holders of the requested data.
system.tol2bus.snoop_filter.hit_multi_snoops            4                       # Number of snoops hitting in the snoop filter with multiple (>1) holders of the requested data.
system.tol2bus.snoop_filter.hit_single_requests       493031                       # Number of requests hitting in the snoop filter with a single holder of the requested data.
system.tol2bus.snoop_filter.hit_single_snoops          684                       # Number of snoops hitting in the snoop filter with a single holder of the requested data.
system.tol2bus.snoop_filter.tot_requests       988780                       # Total number of requests made to the snoop filter.
system.tol2bus.snoop_filter.tot_snoops            688                       # Total number of snoops made to the snoop filter.
system.membus.trans_dist::ReadResp               7483                       # Transaction distribution
system.membus.trans_dist::WritebackDirty        12656                       # Transaction distribution
system.membus.trans_dist::CleanEvict              219                       # Transaction distribution
system.membus.trans_dist::ReadExReq             71613                       # Transaction distribution
system.membus.trans_dist::ReadExResp            71613                       # Transaction distribution
system.membus.trans_dist::ReadSharedReq          7483                       # Transaction distribution
system.membus.pkt_count_system.l2.mem_side_port::system.mem_ctrls.port       171067                       # Packet count per connected requestor and responder (bytes)
system.membus.pkt_count::total                 171067                       # Packet count per connected requestor and responder (bytes)
system.membus.pkt_size_system.l2.mem_side_port::system.mem_ctrls.port      2936064                       # Cumulative packet size per connected requestor and responder (bytes)
system.membus.pkt_size::total                 2936064                       # Cumulative packet size per connected requestor and responder (bytes)
system.membus.snoops                                0                       # Total snoops (count)
system.membus.snoopTraffic                          0                       # Total snoop traffic (bytes)
system.membus.snoop_fanout::samples             79096                       # Request fanout histogram
system.membus.snoop_fanout::mean                    0                       # Request fanout histogram
system.membus.snoop_fanout::stdev                   0                       # Request fanout histogram
system.membus.snoop_fanout::underflows              0      0.00%      0.00% # Request fanout histogram
system.membus.snoop_fanout::0                   79096    100.00%    100.00% # Request fanout histogram
system.membus.snoop_fanout::1                       0      0.00%    100.00% # Request fanout histogram
system.membus.snoop_fanout::overflows               0      0.00%    100.00% # Request fanout histogram
system.membus.snoop_fanout::min_value               0                       # Request fanout histogram
system.membus.snoop_fanout::max_value               0                       # Request fanout histogram
system.membus.snoop_fanout::total               79096                       # Request fanout histogram
system.membus.reqLayer0.occupancy           134618500                       # Layer occupancy (ticks)
system.membus.reqLayer0.utilization               0.2                       # Layer utilization (%)
system.membus.respLayer1.occupancy          273256490                       # Layer occupancy (ticks)
system.membus.respLayer1.utilization              0.4                       # Layer utilization (%)
system.membus.power_state.pwrStateResidencyTicks::UNDEFINED  62386363500                       # Cumulative time (in ticks) in various power states
system.tol2bus.trans_dist::ReadResp            424136                       # Transaction distribution
system.tol2bus.trans_dist::WritebackDirty        99908                       # Transaction distribution
system.tol2bus.trans_dist::WritebackClean       401748                       # Transaction distribution
system.tol2bus.trans_dist::CleanEvict            4934                       # Transaction distribution
system.tol2bus.trans_dist::ReadExReq            71617                       # Transaction distribution
system.tol2bus.trans_dist::ReadExResp           71617                       # Transaction distribution
system.tol2bus.trans_dist::ReadCleanReq        402426                       # Transaction distribution
system.tol2bus.trans_dist::ReadSharedReq        21710                       # Transaction distribution
system.tol2bus.pkt_count_system.cpu.icache.mem_side_port::system.l2.cpu_side_port      1206600                       # Packet count per connected requestor and responder (bytes)
system.tol2bus.pkt_count_system.cpu.dcache.mem_side_port::system.l2.cpu_side_port       277933                       # Packet count per connected requestor and responder (bytes)
system.tol2bus.pkt_count::total               1484533                       # Packet count per connected requestor and responder (bytes)
system.tol2bus.pkt_size_system.cpu.icache.mem_side_port::system.l2.cpu_side_port     25733568                       # Cumulative packet size per connected requestor and responder (bytes)
system.tol2bus.pkt_size_system.cpu.dcache.mem_side_port::system.l2.cpu_side_port      5778528                       # Cumulative packet size per connected requestor and responder (bytes)
system.tol2bus.pkt_size::total               31512096                       # Cumulative packet size per connected requestor and responder (bytes)
system.tol2bus.snoops                           13563                       # Total snoops (count)
system.tol2bus.snoopTraffic                    404992                       # Total snoop traffic (bytes)
system.tol2bus.snoop_fanout::samples           509316                       # Request fanout histogram
system.tol2bus.snoop_fanout::mean            0.001402                       # Request fanout histogram
system.tol2bus.snoop_fanout::stdev           0.037625                       # Request fanout histogram
system.tol2bus.snoop_fanout::underflows             0      0.00%      0.00% # Request fanout histogram
system.tol2bus.snoop_fanout::0                 508606     99.86%     99.86% # Request fanout histogram
system.tol2bus.snoop_fanout::1                    706      0.14%    100.00% # Request fanout histogram
system.tol2bus.snoop_fanout::2                      4      0.00%    100.00% # Request fanout histogram
system.tol2bus.snoop_fanout::overflows              0      0.00%    100.00% # Request fanout histogram
system.tol2bus.snoop_fanout::min_value              0                       # Request fanout histogram
system.tol2bus.snoop_fanout::max_value              2                       # Request fanout histogram
system.tol2bus.snoop_fanout::total             509316                       # Request fanout histogram
system.tol2bus.reqLayer0.occupancy          738890000                       # Layer occupancy (ticks)
system.tol2bus.reqLayer0.utilization              1.2                       # Layer utilization (%)
system.tol2bus.respLayer1.occupancy          93328996                       # Layer occupancy (ticks)
system.tol2bus.respLayer1.utilization             0.1                       # Layer utilization (%)
system.tol2bus.respLayer0.occupancy         402426000                       # Layer occupancy (ticks)
system.tol2bus.respLayer0.utilization             0.6                       # Layer utilization (%)
system.tol2bus.power_state.pwrStateResidencyTicks::UNDEFINED  62386363500                       # Cumulative time (in ticks) in various power states
system.voltage_domain.voltage                       1                       # Voltage in Volts
system.clk_domain.clock                          1000                       # Clock period in ticks
system.l2.demand_hits::.cpu.inst               401618                       # number of demand (read+write) hits
system.l2.demand_hits::.cpu.data                15035                       # number of demand (read+write) hits
system.l2.demand_hits::total                   416653                       # number of demand (read+write) hits
system.l2.overall_hits::.cpu.inst              401618                       # number of overall hits
system.l2.overall_hits::.cpu.data               15035                       # number of overall hits
system.l2.overall_hits::total                  416653                       # number of overall hits
system.l2.demand_misses::.cpu.inst                808                       # number of demand (read+write) misses
system.l2.demand_misses::.cpu.data              78292                       # number of demand (read+write) misses
system.l2.demand_misses::total                  79100                       # number of demand (read+write) misses
system.l2.overall_misses::.cpu.inst               808                       # number of overall misses
system.l2.overall_misses::.cpu.data             78292                       # number of overall misses
system.l2.overall_misses::total                 79100                       # number of overall misses
system.l2.demand_miss_latency::.cpu.inst     60673500                       # number of demand (read+write) miss cycles
system.l2.demand_miss_latency::.cpu.data   6070959000                       # number of demand (read+write) miss cycles
system.l2.demand_miss_latency::total       6131632500                       # number of demand (read+write) miss cycles
system.l2.overall_miss_latency::.cpu.inst     60673500                       # number of overall miss cycles
system.l2.overall_miss_latency::.cpu.data   6070959000                       # number of overall miss cycles
system.l2.overall_miss_latency::total      6131632500                       # number of overall miss cycles
system.l2.demand_accesses::.cpu.inst           402426                       # number of demand (read+write) accesses
system.l2.demand_accesses::.cpu.data            93327                       # number of demand (read+write) accesses
system.l2.demand_accesses::total               495753                       # number of demand (read+write) accesses
system.l2.overall_accesses::.cpu.inst          402426                       # number of overall (read+write) accesses
system.l2.overall_accesses::.cpu.data           93327                       # number of overall (read+write) accesses
system.l2.overall_accesses::total              495753                       # number of overall (read+write) accesses
system.l2.demand_miss_rate::.cpu.inst        0.002008                       # miss rate for demand accesses
system.l2.demand_miss_rate::.cpu.data        0.838900                       # miss rate for demand accesses
system.l2.demand_miss_rate::total            0.159555                       # miss rate for demand accesses
system.l2.overall_miss_rate::.cpu.inst       0.002008                       # miss rate for overall accesses
system.l2.overall_miss_rate::.cpu.data       0.838900                       # miss rate for overall accesses
system.l2.overall_miss_rate::total           0.159555                       # miss rate for overall accesses
system.l2.demand_avg_miss_latency::.cpu.inst 75090.965347                       # average overall miss latency
system.l2.demand_avg_miss_latency::.cpu.data 77542.520309                       # average overall miss latency
system.l2.demand_avg_miss_latency::total 77517.477876                       # average overall miss latency
system.l2.overall_avg_miss_latency::.cpu.inst 75090.965347                       # average overall miss latency
system.l2.overall_avg_miss_latency::.cpu.data 77542.520309                       # average overall miss latency
system.l2.overall_avg_miss_latency::total 77517.477876                       # average overall miss latency
system.l2.blocked_cycles::no_mshrs                  0                       # number of cycles access was blocked
system.l2.blocked_cycles::no_targets                0                       # number of cycles access was blocked
system.l2.blocked::no_mshrs                         0                       # number of cycles access was blocked
system.l2.blocked::no_targets                       0                       # number of cycles access was blocked
system.l2.avg_blocked_cycles::no_mshrs            nan                       # average number of cycles each access was blocked
system.l2.avg_blocked_cycles::no_targets          nan                       # average number of cycles each access was blocked
system.l2.writebacks::.writebacks               12656                       # number of writebacks
system.l2.writebacks::total                     12656                       # number of writebacks
system.l2.demand_mshr_hits::.cpu.data               4                       # number of demand (read+write) MSHR hits
system.l2.demand_mshr_hits::total                   4                       # number of demand (read+write) MSHR hits
system.l2.overall_mshr_hits::.cpu.data              4                       # number of overall MSHR hits
system.l2.overall_mshr_hits::total                  4                       # number of overall MSHR hits
system.l2.demand_mshr_misses::.cpu.inst           808                       # number of demand (read+write) MSHR misses
system.l2.demand_mshr_misses::.cpu.data         78288                       # number of demand (read+write) MSHR misses
system.l2.demand_mshr_misses::total             79096                       # number of demand (read+write) MSHR misses
system.l2.overall_mshr_misses::.cpu.inst          808                       # number of overall MSHR misses
system.l2.overall_mshr_misses::.cpu.data        78288                       # number of overall MSHR misses
system.l2.overall_mshr_misses::total            79096                       # number of overall MSHR misses
system.l2.demand_mshr_miss_latency::.cpu.inst     52593500                       # number of demand (read+write) MSHR miss cycles
system.l2.demand_mshr_miss_latency::.cpu.data   5287816000                       # number of demand (read+write) MSHR miss cycles
system.l2.demand_mshr_miss_latency::total   5340409500                       # number of demand (read+write) MSHR miss cycles
system.l2.overall_mshr_miss_latency::.cpu.inst     52593500                       # number of overall MSHR miss cycles
system.l2.overall_mshr_miss_latency::.cpu.data   5287816000                       # number of overall MSHR miss cycles
system.l2.overall_mshr_miss_latency::total   5340409500                       # number of overall MSHR miss cycles
system.l2.demand_mshr_miss_rate::.cpu.inst     0.002008                       # mshr miss rate for demand accesses
system.l2.demand_mshr_miss_rate::.cpu.data     0.838857                       # mshr miss rate for demand accesses
system.l2.demand_mshr_miss_rate::total       0.159547                       # mshr miss rate for demand accesses
system.l2.overall_mshr_miss_rate::.cpu.inst     0.002008                       # mshr miss rate for overall accesses
system.l2.overall_mshr_miss_rate::.cpu.data     0.838857                       # mshr miss rate for overall accesses
system.l2.overall_mshr_miss_rate::total      0.159547                       # mshr miss rate for overall accesses
system.l2.demand_avg_mshr_miss_latency::.cpu.inst 65090.965347                       # average overall mshr miss latency
system.l2.demand_avg_mshr_miss_latency::.cpu.data 67543.122829                       # average overall mshr miss latency
system.l2.demand_avg_mshr_miss_latency::total 67518.072975                       # average overall mshr miss latency
system.l2.overall_avg_mshr_miss_latency::.cpu.inst 65090.965347                       # average overall mshr miss latency
system.l2.overall_avg_mshr_miss_latency::.cpu.data 67543.122829                       # average overall mshr miss latency
system.l2.overall_avg_mshr_miss_latency::total 67518.072975                       # average overall mshr miss latency
system.l2.replacements                          13563                       # number of replacements
system.l2.WritebackDirty_hits::.writebacks        87252                       # number of WritebackDirty hits
system.l2.WritebackDirty_hits::total            87252                       # number of WritebackDirty hits
system.l2.WritebackDirty_accesses::.writebacks        87252                       # number of WritebackDirty accesses(hits+misses)
system.l2.WritebackDirty_accesses::total        87252                       # number of WritebackDirty accesses(hits+misses)
system.l2.WritebackClean_hits::.writebacks       401742                       # number of WritebackClean hits
system.l2.WritebackClean_hits::total           401742                       # number of WritebackClean hits
system.l2.WritebackClean_accesses::.writebacks       401742                       # number of WritebackClean accesses(hits+misses)
system.l2.WritebackClean_accesses::total       401742                       # number of WritebackClean accesses(hits+misses)
system.l2.ReadExReq_hits::.cpu.data                 4                       # number of ReadExReq hits
system.l2.ReadExReq_hits::total                     4                       # number of ReadExReq hits
system.l2.ReadExReq_misses::.cpu.data           71613                       # number of ReadExReq misses
system.l2.ReadExReq_misses::total               71613                       # number of ReadExReq misses
system.l2.ReadExReq_miss_latency::.cpu.data   5544447000                       # number of ReadExReq miss cycles
system.l2.ReadExReq_miss_latency::total    5544447000                       # number of ReadExReq miss cycles
system.l2.ReadExReq_accesses::.cpu.data         71617                       # number of ReadExReq accesses(hits+misses)
system.l2.ReadExReq_accesses::total             71617                       # number of ReadExReq accesses(hits+misses)
system.l2.ReadExReq_miss_rate::.cpu.data     0.999944                       # miss rate for ReadExReq accesses
system.l2.ReadExReq_miss_rate::total         0.999944                       # miss rate for ReadExReq accesses
system.l2.ReadExReq_avg_miss_latency::.cpu.data 77422.353483                       # average ReadExReq miss latency
system.l2.ReadExReq_avg_miss_latency::total 77422.353483                       # average ReadExReq miss latency
system.l2.ReadExReq_mshr_misses::.cpu.data        71613                       # number of ReadExReq MSHR misses
system.l2.ReadExReq_mshr_misses::total          71613                       # number of ReadExReq MSHR misses
system.l2.ReadExReq_mshr_miss_latency::.cpu.data   4828317000                       # number of ReadExReq MSHR miss cycles
system.l2.ReadExReq_mshr_miss_latency::total   4828317000                       # number of ReadExReq MSHR miss cycles
system.l2.ReadExReq_mshr_miss_rate::.cpu.data     0.999944                       # mshr miss rate for ReadExReq accesses
system.l2.ReadExReq_mshr_miss_rate::total     0.999944                       # mshr miss rate for ReadExReq accesses
system.l2.ReadExReq_avg_mshr_miss_latency::.cpu.data 67422.353483                       # average ReadExReq mshr miss latency
system.l2.ReadExReq_avg_mshr_miss_latency::total 67422.353483                       # average ReadExReq mshr miss latency
system.l2.ReadCleanReq_hits::.cpu.inst         401618                       # number of ReadCleanReq hits
system.l2.ReadCleanReq_hits::total             401618                       # number of ReadCleanReq hits
system.l2.ReadCleanReq_misses::.cpu.inst          808                       # number of ReadCleanReq misses
system.l2.ReadCleanReq_misses::total              808                       # number of ReadCleanReq misses
system.l2.ReadCleanReq_miss_latency::.cpu.inst     60673500                       # number of ReadCleanReq miss cycles
system.l2.ReadCleanReq_miss_latency::total     60673500                       # number of ReadCleanReq miss cycles
system.l2.ReadCleanReq_accesses::.cpu.inst       402426                       # number of ReadCleanReq accesses(hits+misses)
system.l2.ReadCleanReq_accesses::total         402426                       # number of ReadCleanReq accesses(hits+misses)
system.l2.ReadCleanReq_miss_rate::.cpu.inst     0.002008                       # miss rate for ReadCleanReq accesses
system.l2.ReadCleanReq_miss_rate::total      0.002008                       # miss rate for ReadCleanReq accesses
system.l2.ReadCleanReq_avg_miss_latency::.cpu.inst 75090.965347                       # average ReadCleanReq miss latency
system.l2.ReadCleanReq_avg_miss_latency::total 75090.965347                       # average ReadCleanReq miss latency
system.l2.ReadCleanReq_mshr_misses::.cpu.inst          808                       # number of ReadCleanReq MSHR misses
system.l2.ReadCleanReq_mshr_misses::total          808                       # number of ReadCleanReq MSHR misses
system.l2.ReadCleanReq_mshr_miss_latency::.cpu.inst     52593500                       # number of ReadCleanReq MSHR miss cycles
system.l2.ReadCleanReq_mshr_miss_latency::total     52593500                       # number of ReadCleanReq MSHR miss cycles
system.l2.ReadCleanReq_mshr_miss_rate::.cpu.inst     0.002008                       # mshr miss rate for ReadCleanReq accesses
system.l2.ReadCleanReq_mshr_miss_rate::total     0.002008                       # mshr miss rate for ReadCleanReq accesses
system.l2.ReadCleanReq_avg_mshr_miss_latency::.cpu.inst 65090.965347                       # average ReadCleanReq mshr miss latency
system.l2.ReadCleanReq_avg_mshr_miss_latency::total 65090.965347                       # average ReadCleanReq mshr miss latency
system.l2.ReadSharedReq_hits::.cpu.data         15031                       # number of ReadSharedReq hits
system.l2.ReadSharedReq_hits::total             15031                       # number of ReadSharedReq hits
system.l2.ReadSharedReq_misses::.cpu.data         6679                       # number of ReadSharedReq misses
system.l2.ReadSharedReq_misses::total            6679                       # number of ReadSharedReq misses
system.l2.ReadSharedReq_miss_latency::.cpu.data    526512000                       # number of ReadSharedReq miss cycles
system.l2.ReadSharedReq_miss_latency::total    526512000                       # number of ReadSharedReq miss cycles
system.l2.ReadSharedReq_accesses::.cpu.data        21710                       # number of ReadSharedReq accesses(hits+misses)
system.l2.ReadSharedReq_accesses::total         21710                       # number of ReadSharedReq accesses(hits+misses)
system.l2.ReadSharedReq_miss_rate::.cpu.data     0.307646                       # miss rate for ReadSharedReq accesses
system.l2.ReadSharedReq_miss_rate::total     0.307646                       # miss rate for ReadSharedReq accesses
system.l2.ReadSharedReq_avg_miss_latency::.cpu.data 78830.962719                       # average ReadSharedReq miss latency
system.l2.ReadSharedReq_avg_miss_latency::total 78830.962719                       # average ReadSharedReq miss latency
system.l2.ReadSharedReq_mshr_hits::.cpu.data            4                       # number of ReadSharedReq MSHR hits
system.l2.ReadSharedReq_mshr_hits::total            4                       # number of ReadSharedReq MSHR hits
system.l2.ReadSharedReq_mshr_misses::.cpu.data         6675                       # number of ReadSharedReq MSHR misses
system.l2.ReadSharedReq_mshr_misses::total         6675                       # number of ReadSharedReq MSHR misses
system.l2.ReadSharedReq_mshr_miss_latency::.cpu.data    459499000                       # number of ReadSharedReq MSHR miss cycles
system.l2.ReadSharedReq_mshr_miss_latency::total    459499000                       # number of ReadSharedReq MSHR miss cycles
system.l2.ReadSharedReq_mshr_miss_rate::.cpu.data     0.307462                       # mshr miss rate for ReadSharedReq accesses
system.l2.ReadSharedReq_mshr_miss_rate::total     0.307462                       # mshr miss rate for ReadSharedReq accesses
system.l2.ReadSharedReq_avg_mshr_miss_latency::.cpu.data 68838.801498                       # average ReadSharedReq mshr miss latency
system.l2.ReadSharedReq_avg_mshr_miss_latency::total 68838.801498                       # average ReadSharedReq mshr miss latency
system.l2.power_state.pwrStateResidencyTicks::UNDEFINED  62386363500                       # Cumulative time (in ticks) in various power states
system.l2.tags.tagsinuse                 51961.315401                       # Cycle average of tags in use
system.l2.tags.total_refs                      988758                       # Total number of references to valid blocks.
system.l2.tags.sampled_refs                     79099                       # Sample count of references to valid blocks.
system.l2.tags.avg_refs                     12.500259                       # Average number of references to valid blocks.
system.l2.tags.warmup_cycle                     76000                       # Cycle when the warmup percentage was hit.
system.l2.tags.occ_blocks::.writebacks       0.782266                       # Average occupied blocks per requestor
system.l2.tags.occ_blocks::.cpu.inst       525.522915                       # Average occupied blocks per requestor
system.l2.tags.occ_blocks::.cpu.data     51435.010220                       # Average occupied blocks per requestor
system.l2.tags.occ_percent::.writebacks      0.000012                       # Average percentage of cache occupancy
system.l2.tags.occ_percent::.cpu.inst        0.008019                       # Average percentage of cache occupancy
system.l2.tags.occ_percent::.cpu.data        0.784836                       # Average percentage of cache occupancy
system.l2.tags.occ_percent::total            0.792867                       # Average percentage of cache occupancy
system.l2.tags.occ_task_id_blocks::1024         65536                       # Occupied blocks per task id
system.l2.tags.age_task_id_blocks_1024::0            6                       # Occupied blocks per task id
system.l2.tags.age_task_id_blocks_1024::1           64                       # Occupied blocks per task id
system.l2.tags.age_task_id_blocks_1024::2          704                       # Occupied blocks per task id
system.l2.tags.age_task_id_blocks_1024::3         6650                       # Occupied blocks per task id
system.l2.tags.age_task_id_blocks_1024::4        58112                       # Occupied blocks per task id
system.l2.tags.occ_task_id_percent::1024            1                       # Percentage of cache occupancy per task id
system.l2.tags.tag_accesses                   7989195                       # Number of tag accesses
system.l2.tags.data_accesses                  7989195                       # Number of data accesses
system.l2.tags.power_state.pwrStateResidencyTicks::UNDEFINED  62386363500                       # Cumulative time (in ticks) in various power states
system.cpu_voltage_domain.voltage                   1                       # Voltage in Volts
system.mem_ctrls.avgPriority_.writebacks::samples      8172.00                       # Average QoS priority value for accepted requests
system.mem_ctrls.avgPriority_.cpu.inst::samples       808.00                       # Average QoS priority value for accepted requests
system.mem_ctrls.avgPriority_.cpu.data::samples     78286.00                       # Average QoS priority value for accepted requests
system.mem_ctrls.priorityMinLatency      0.000000017492                       # per QoS priority minimum request to response latency (s)
system.mem_ctrls.priorityMaxLatency      0.022711597480                       # per QoS priority maximum request to response latency (s)
system.mem_ctrls.numReadWriteTurnArounds          451                       # Number of turnarounds from READ to WRITE
system.mem_ctrls.numWriteReadTurnArounds          451                       # Number of turnarounds from WRITE to READ
system.mem_ctrls.numStayReadState              186841                       # Number of times bus staying in READ state
system.mem_ctrls.numStayWriteState               7686                       # Number of times bus staying in WRITE state
system.mem_ctrls.readReqs                       79096                       # Number of read requests accepted
system.mem_ctrls.writeReqs                      12656                       # Number of write requests accepted
system.mem_ctrls.readBursts                     79096                       # Number of controller read bursts, including those serviced by the write queue
system.mem_ctrls.writeBursts                    12656                       # Number of controller write bursts, including those merged in the write queue
system.mem_ctrls.servicedByWrQ                      2                       # Number of controller read bursts serviced by the write queue
system.mem_ctrls.mergedWrBursts                  4484                       # Number of controller write bursts merged with an existing one
system.mem_ctrls.neitherReadNorWriteReqs            0                       # Number of requests that are neither read nor write
system.mem_ctrls.avgRdQLen                       1.04                       # Average read queue length when enqueuing
system.mem_ctrls.avgWrQLen                      19.85                       # Average write queue length when enqueuing
system.mem_ctrls.numRdRetry                         0                       # Number of times read queue was full causing retry
system.mem_ctrls.numWrRetry                         0                       # Number of times write queue was full causing retry
system.mem_ctrls.readPktSize::0                     0                       # Read request sizes (log2)
system.mem_ctrls.readPktSize::1                     0                       # Read request sizes (log2)
system.mem_ctrls.readPktSize::2                     0                       # Read request sizes (log2)
system.mem_ctrls.readPktSize::3                     0                       # Read request sizes (log2)
system.mem_ctrls.readPktSize::4                     0                       # Read request sizes (log2)
system.mem_ctrls.readPktSize::5                 79096                       # Read request sizes (log2)
system.mem_ctrls.writePktSize::0                    0                       # Write request sizes (log2)
system.mem_ctrls.writePktSize::1                    0                       # Write request sizes (log2)
system.mem_ctrls.writePktSize::2                    0                       # Write request sizes (log2)
system.mem_ctrls.writePktSize::3                    0                       # Write request sizes (log2)
system.mem_ctrls.writePktSize::4                    0                       # Write request sizes (log2)
system.mem_ctrls.writePktSize::5                12656                       # Write request sizes (log2)
system.mem_ctrls.rdQLenPdf::0                   69794                       # What read queue length does an incoming req see
system.mem_ctrls.rdQLenPdf::1                    9283                       # What read queue length does an incoming req see
system.mem_ctrls.rdQLenPdf::2                      17                       # What read queue length does an incoming req see
system.mem_ctrls.rdQLenPdf::3                       0                       # What read queue length does an incoming req see
system.mem_ctrls.rdQLenPdf::4                       0                       # What read queue length does an incoming req see
system.mem_ctrls.rdQLenPdf::5                       0                       # What read queue length does an incoming req see
system.mem_ctrls.rdQLenPdf::6                       0                       # What read queue length does an incoming req see
system.mem_ctrls.rdQLenPdf::7                       0                       # What read queue length does an incoming req see
system.mem_ctrls.rdQLenPdf::8                       0                       # What read queue length does an incoming req see
system.mem_ctrls.rdQLenPdf::9                       0                       # What read queue length does an incoming req see
system.mem_ctrls.rdQLenPdf::10                      0                       # What read queue length does an incoming req see
system.mem_ctrls.rdQLenPdf::11                      0                       # What read queue length does an incoming req see
system.mem_ctrls.rdQLenPdf::12                      0                       # What read queue length does an incoming req see
system.mem_ctrls.rdQLenPdf::13                      0                       # What read queue length does an incoming req see
system.mem_ctrls.rdQLenPdf::14                      0                       # What read queue length does an incoming req see
system.mem_ctrls.rdQLenPdf::15                      0                       # What read queue length does an incoming req see
system.mem_ctrls.rdQLenPdf::16                      0                       # What read queue length does an incoming req see
system.mem_ctrls.rdQLenPdf::17                      0                       # What read queue length does an incoming req see
system.mem_ctrls.rdQLenPdf::18                      0                       # What read queue length does an incoming req see
system.mem_ctrls.rdQLenPdf::19                      0                       # What read queue length does an incoming req see
system.mem_ctrls.rdQLenPdf::20                      0                       # What read queue length does an incoming req see
system.mem_ctrls.rdQLenPdf::21                      0                       # What read queue length does an incoming req see
system.mem_ctrls.rdQLenPdf::22                      0                       # What read queue length does an incoming req see
system.mem_ctrls.rdQLenPdf::23                      0                       # What read queue length does an incoming req see
system.mem_ctrls.rdQLenPdf::24                      0                       # What read queue length does an incoming req see
system.mem_ctrls.rdQLenPdf::25                      0                       # What read queue length does an incoming req see
system.mem_ctrls.rdQLenPdf::26                      0                       # What read queue length does an incoming req see
system.mem_ctrls.rdQLenPdf::27                      0                       # What read queue length does an incoming req see
system.mem_ctrls.rdQLenPdf::28                      0                       # What read queue length does an incoming req see
system.mem_ctrls.rdQLenPdf::29                      0                       # What read queue length does an incoming req see
system.mem_ctrls.rdQLenPdf::30                      0                       # What read queue length does an incoming req see
system.mem_ctrls.rdQLenPdf::31                      0                       # What read queue length does an incoming req see
system.mem_ctrls.rdQLenPdf::32                      0                       # What read queue length does an incoming req see
system.mem_ctrls.rdQLenPdf::33                      0                       # What read queue length does an incoming req see
system.mem_ctrls.rdQLenPdf::34                      0                       # What read queue length does an incoming req see
system.mem_ctrls.rdQLenPdf::35                      0                       # What read queue length does an incoming req see
system.mem_ctrls.rdQLenPdf::36                      0                       # What read queue length does an incoming req see
system.mem_ctrls.rdQLenPdf::37                      0                       # What read queue length does an incoming req see
system.mem_ctrls.rdQLenPdf::38                      0                       # What read queue length does an incoming req see
system.mem_ctrls.rdQLenPdf::39                      0                       # What read queue length does an incoming req see
system.mem_ctrls.rdQLenPdf::40                      0                       # What read queue length does an incoming req see
system.mem_ctrls.rdQLenPdf::41                      0                       # What read queue length does an incoming req see
system.mem_ctrls.rdQLenPdf::42                      0                       # What read queue length does an incoming req see
system.mem_ctrls.rdQLenPdf::43                      0                       # What read queue length does an incoming req see
system.mem_ctrls.rdQLenPdf::44                      0                       # What read queue length does an incoming req see
system.mem_ctrls.rdQLenPdf::45                      0                       # What read queue length does an incoming req see
system.mem_ctrls.rdQLenPdf::46                      0                       # What read queue length does an incoming req see
system.mem_ctrls.rdQLenPdf::47                      0                       # What read queue length does an incoming req see
system.mem_ctrls.rdQLenPdf::48                      0                       # What read queue length does an incoming req see
system.mem_ctrls.rdQLenPdf::49                      0                       # What read queue length does an incoming req see
system.mem_ctrls.rdQLenPdf::50                      0                       # What read queue length does an incoming req see
system.mem_ctrls.rdQLenPdf::51                      0                       # What read queue length does an incoming req see
system.mem_ctrls.rdQLenPdf::52                      0                       # What read queue length does an incoming req see
system.mem_ctrls.rdQLenPdf::53                      0                       # What read queue length does an incoming req see
system.mem_ctrls.rdQLenPdf::54                      0                       # What read queue length does an incoming req see
system.mem_ctrls.rdQLenPdf::55                      0                       # What read queue length does an incoming req see
system.mem_ctrls.rdQLenPdf::56                      0                       # What read queue length does an incoming req see
system.mem_ctrls.rdQLenPdf::57                      0                       # What read queue length does an incoming req see
system.mem_ctrls.rdQLenPdf::58                      0                       # What read queue length does an incoming req see
system.mem_ctrls.rdQLenPdf::59                      0                       # What read queue length does an incoming req see
system.mem_ctrls.rdQLenPdf::60                      0                       # What read queue length does an incoming req see
system.mem_ctrls.rdQLenPdf::61                      0                       # What read queue length does an incoming req see
system.mem_ctrls.rdQLenPdf::62                      0                       # What read queue length does an incoming req see
system.mem_ctrls.rdQLenPdf::63                      0                       # What read queue length does an incoming req see
system.mem_ctrls.wrQLenPdf::0                       1                       # What write queue length does an incoming req see
system.mem_ctrls.wrQLenPdf::1                       1                       # What write queue length does an incoming req see
system.mem_ctrls.wrQLenPdf::2                       1                       # What write queue length does an incoming req see
system.mem_ctrls.wrQLenPdf::3                       1                       # What write queue length does an incoming req see
system.mem_ctrls.wrQLenPdf::4                       1                       # What write queue length does an incoming req see
system.mem_ctrls.wrQLenPdf::5                       1                       # What write queue length does an incoming req see
system.mem_ctrls.wrQLenPdf::6                       1                       # What write queue length does an incoming req see
system.mem_ctrls.wrQLenPdf::7                       1                       # What write queue length does an incoming req see
system.mem_ctrls.wrQLenPdf::8                       1                       # What write queue length does an incoming req see
system.mem_ctrls.wrQLenPdf::9                       1                       # What write queue length does an incoming req see
system.mem_ctrls.wrQLenPdf::10                      1                       # What write queue length does an incoming req see
system.mem_ctrls.wrQLenPdf::11                      1                       # What write queue length does an incoming req see
system.mem_ctrls.wrQLenPdf::12                      1                       # What write queue length does an incoming req see
system.mem_ctrls.wrQLenPdf::13                      1                       # What write queue length does an incoming req see
system.mem_ctrls.wrQLenPdf::14                      1                       # What write queue length does an incoming req see
system.mem_ctrls.wrQLenPdf::15                      1                       # What write queue length does an incoming req see
system.mem_ctrls.wrQLenPdf::16                      1                       # What write queue length does an incoming req see
system.mem_ctrls.wrQLenPdf::17                      1                       # What write queue length does an incoming req see
system.mem_ctrls.wrQLenPdf::18                      1                       # What write queue length does an incoming req see
system.mem_ctrls.wrQLenPdf::19                      1                       # What write queue length does an incoming req see
system.mem_ctrls.wrQLenPdf::20                      1                       # What write queue length does an incoming req see
system.mem_ctrls.wrQLenPdf::21                      1                       # What write queue length does an incoming req see
system.mem_ctrls.wrQLenPdf::22                      1                       # What write queue length does an incoming req see
system.mem_ctrls.wrQLenPdf::23                      1                       # What write queue length does an incoming req see
system.mem_ctrls.wrQLenPdf::24                      1                       # What write queue length does an incoming req see
system.mem_ctrls.wrQLenPdf::25                      1                       # What write queue length does an incoming req see
system.mem_ctrls.wrQLenPdf::26                      1                       # What write queue length does an incoming req see
system.mem_ctrls.wrQLenPdf::27                      1                       # What write queue length does an incoming req see
system.mem_ctrls.wrQLenPdf::28                      1                       # What write queue length does an incoming req see
system.mem_ctrls.wrQLenPdf::29                      1                       # What write queue length does an incoming req see
system.mem_ctrls.wrQLenPdf::30                      1                       # What write queue length does an incoming req see
system.mem_ctrls.wrQLenPdf::31                      1                       # What write queue length does an incoming req see
system.mem_ctrls.wrQLenPdf::32                      1                       # What write queue length does an incoming req see
system.mem_ctrls.wrQLenPdf::33                      1                       # What write queue length does an incoming req see
system.mem_ctrls.wrQLenPdf::34                      1                       # What write queue length does an incoming req see
system.mem_ctrls.wrQLenPdf::35                      1                       # What write queue length does an incoming req see
system.mem_ctrls.wrQLenPdf::36                      1                       # What write queue length does an incoming req see
system.mem_ctrls.wrQLenPdf::37                      1                       # What write queue length does an incoming req see
system.mem_ctrls.wrQLenPdf::38                      1                       # What write queue length does an incoming req see
system.mem_ctrls.wrQLenPdf::39                      1                       # What write queue length does an incoming req see
system.mem_ctrls.wrQLenPdf::40                      1                       # What write queue length does an incoming req see
system.mem_ctrls.wrQLenPdf::41                      1                       # What write queue length does an incoming req see
system.mem_ctrls.wrQLenPdf::42                      1                       # What write queue length does an incoming req see
system.mem_ctrls.wrQLenPdf::43                      1                       # What write queue length does an incoming req see
system.mem_ctrls.wrQLenPdf::44                      1                       # What write queue length does an incoming req see
system.mem_ctrls.wrQLenPdf::45                      1                       # What write queue length does an incoming req see
system.mem_ctrls.wrQLenPdf::46                      1                       # What write queue length does an incoming req see
system.mem_ctrls.wrQLenPdf::47                    451                       # What write queue length does an incoming req see
system.mem_ctrls.wrQLenPdf::48                    451                       # What write queue length does an incoming req see
system.mem_ctrls.wrQLenPdf::49                    451                       # What write queue length does an incoming req see
system.mem_ctrls.wrQLenPdf::50                    451                       # What write queue length does an incoming req see
system.mem_ctrls.wrQLenPdf::51                    451                       # What write queue length does an incoming req see
system.mem_ctrls.wrQLenPdf::52                    452                       # What write queue length does an incoming req see
system.mem_ctrls.wrQLenPdf::53                    452                       # What write queue length does an incoming req see
system.mem_ctrls.wrQLenPdf::54                    451                       # What write queue length does an incoming req see
system.mem_ctrls.wrQLenPdf::55                    451                       # What write queue length does an incoming req see
system.mem_ctrls.wrQLenPdf::56                    453                       # What write queue length does an incoming req see
system.mem_ctrls.wrQLenPdf::57                    451                       # What write queue length does an incoming req see
system.mem_ctrls.wrQLenPdf::58                    451                       # What write queue length does an incoming req see
system.mem_ctrls.wrQLenPdf::59                    454                       # What write queue length does an incoming req see
system.mem_ctrls.wrQLenPdf::60                    451                       # What write queue length does an incoming req see
system.mem_ctrls.wrQLenPdf::61                    451                       # What write queue length does an incoming req see
system.mem_ctrls.wrQLenPdf::62                    451                       # What write queue length does an incoming req see
system.mem_ctrls.wrQLenPdf::63                    451                       # What write queue length does an incoming req see
system.mem_ctrls.wrQLenPdf::64                    451                       # What write queue length does an incoming req see
system.mem_ctrls.wrQLenPdf::65                      0                       # What write queue length does an incoming req see
system.mem_ctrls.wrQLenPdf::66                      0                       # What write queue length does an incoming req see
system.mem_ctrls.wrQLenPdf::67                      0                       # What write queue length does an incoming req see
system.mem_ctrls.wrQLenPdf::68                      0                       # What write queue length does an incoming req see
system.mem_ctrls.wrQLenPdf::69                      0                       # What write queue length does an incoming req see
system.mem_ctrls.wrQLenPdf::70                      0                       # What write queue length does an incoming req see
system.mem_ctrls.wrQLenPdf::71                      0                       # What write queue length does an incoming req see
system.mem_ctrls.wrQLenPdf::72                      0                       # What write queue length does an incoming req see
system.mem_ctrls.wrQLenPdf::73                      0                       # What write queue length does an incoming req see
system.mem_ctrls.wrQLenPdf::74                      0                       # What write queue length does an incoming req see
system.mem_ctrls.wrQLenPdf::75                      0                       # What write queue length does an incoming req see
system.mem_ctrls.wrQLenPdf::76                      0                       # What write queue length does an incoming req see
system.mem_ctrls.wrQLenPdf::77                      0                       # What write queue length does an incoming req see
system.mem_ctrls.wrQLenPdf::78                      0                       # What write queue length does an incoming req see
system.mem_ctrls.wrQLenPdf::79                      0                       # What write queue length does an incoming req see
system.mem_ctrls.wrQLenPdf::80                      0                       # What write queue length does an incoming req see
system.mem_ctrls.wrQLenPdf::81                      0                       # What write queue length does an incoming req see
system.mem_ctrls.wrQLenPdf::82                      0                       # What write queue length does an incoming req see
system.mem_ctrls.wrQLenPdf::83                      0                       # What write queue length does an incoming req see
system.mem_ctrls.wrQLenPdf::84                      0                       # What write queue length does an incoming req see
system.mem_ctrls.wrQLenPdf::85                      0                       # What write queue length does an incoming req see
system.mem_ctrls.wrQLenPdf::86                      0                       # What write queue length does an incoming req see
system.mem_ctrls.wrQLenPdf::87                      0                       # What write queue length does an incoming req see
system.mem_ctrls.wrQLenPdf::88                      0                       # What write queue length does an incoming req see
system.mem_ctrls.wrQLenPdf::89                      0                       # What write queue length does an incoming req see
system.mem_ctrls.wrQLenPdf::90                      0                       # What write queue length does an incoming req see
system.mem_ctrls.wrQLenPdf::91                      0                       # What write queue length does an incoming req see
system.mem_ctrls.wrQLenPdf::92                      0                       # What write queue length does an incoming req see
system.mem_ctrls.wrQLenPdf::93                      0                       # What write queue length does an incoming req see
system.mem_ctrls.wrQLenPdf::94                      0                       # What write queue length does an incoming req see
system.mem_ctrls.wrQLenPdf::95                      0                       # What write queue length does an incoming req see
system.mem_ctrls.wrQLenPdf::96                      0                       # What write queue length does an incoming req see
system.mem_ctrls.wrQLenPdf::97                      0                       # What write queue length does an incoming req see
system.mem_ctrls.wrQLenPdf::98                      0                       # What write queue length does an incoming req see
system.mem_ctrls.wrQLenPdf::99                      0                       # What write queue length does an incoming req see
system.mem_ctrls.wrQLenPdf::100                     0                       # What write queue length does an incoming req see
system.mem_ctrls.wrQLenPdf::101                     0                       # What write queue length does an incoming req see
system.mem_ctrls.wrQLenPdf::102                     0                       # What write queue length does an incoming req see
system.mem_ctrls.wrQLenPdf::103                     0                       # What write queue length does an incoming req see
system.mem_ctrls.wrQLenPdf::104                     0                       # What write queue length does an incoming req see
system.mem_ctrls.wrQLenPdf::105                     0                       # What write queue length does an incoming req see
system.mem_ctrls.wrQLenPdf::106                     0                       # What write queue length does an incoming req see
system.mem_ctrls.wrQLenPdf::107                     0                       # What write queue length does an incoming req see
system.mem_ctrls.wrQLenPdf::108                     0                       # What write queue length does an incoming req see
system.mem_ctrls.wrQLenPdf::109                     0                       # What write queue length does an incoming req see
system.mem_ctrls.wrQLenPdf::110                     0                       # What write queue length does an incoming req see
system.mem_ctrls.wrQLenPdf::111                     0                       # What write queue length does an incoming req see
system.mem_ctrls.wrQLenPdf::112                     0                       # What write queue length does an incoming req see
system.mem_ctrls.wrQLenPdf::113                     0                       # What write queue length does an incoming req see
system.mem_ctrls.wrQLenPdf::114                     0                       # What write queue length does an incoming req see
system.mem_ctrls.wrQLenPdf::115                     0                       # What write queue length does an incoming req see
system.mem_ctrls.wrQLenPdf::116                     0                       # What write queue length does an incoming req see
system.mem_ctrls.wrQLenPdf::117                     0                       # What write queue length does an incoming req see
system.mem_ctrls.wrQLenPdf::118                     0                       # What write queue length does an incoming req see
system.mem_ctrls.wrQLenPdf::119                     0                       # What write queue length does an incoming req see
system.mem_ctrls.wrQLenPdf::120                     0                       # What write queue length does an incoming req see
system.mem_ctrls.wrQLenPdf::121                     0                       # What write queue length does an incoming req see
system.mem_ctrls.wrQLenPdf::122                     0                       # What write queue length does an incoming req see
system.mem_ctrls.wrQLenPdf::123                     0                       # What write queue length does an incoming req see
system.mem_ctrls.wrQLenPdf::124                     0                       # What write queue length does an incoming req see
system.mem_ctrls.wrQLenPdf::125                     0                       # What write queue length does an incoming req see
system.mem_ctrls.wrQLenPdf::126                     0                       # What write queue length does an incoming req see
system.mem_ctrls.wrQLenPdf::127                     0                       # What write queue length does an incoming req see
system.mem_ctrls.rdPerTurnAround::samples          451                       # Reads before turning the bus around for writes
system.mem_ctrls.rdPerTurnAround::mean     175.363636                       # Reads before turning the bus around for writes
system.mem_ctrls.rdPerTurnAround::gmean     28.856266                       # Reads before turning the bus around for writes
system.mem_ctrls.rdPerTurnAround::stdev   3071.144059                       # Reads before turning the bus around for writes
system.mem_ctrls.rdPerTurnAround::0-1023          450     99.78%     99.78% # Reads before turning the bus around for writes
system.mem_ctrls.rdPerTurnAround::64512-65535            1      0.22%    100.00% # Reads before turning the bus around for writes
system.mem_ctrls.rdPerTurnAround::total           451                       # Reads before turning the bus around for writes
system.mem_ctrls.wrPerTurnAround::samples          451                       # Writes before turning the bus around for reads
system.mem_ctrls.wrPerTurnAround::mean      18.008869                       # Writes before turning the bus around for reads
system.mem_ctrls.wrPerTurnAround::gmean     18.008248                       # Writes before turning the bus around for reads
system.mem_ctrls.wrPerTurnAround::stdev      0.148807                       # Writes before turning the bus around for reads
system.mem_ctrls.wrPerTurnAround::16                1      0.22%      0.22% # Writes before turning the bus around for reads
system.mem_ctrls.wrPerTurnAround::18              444     98.45%     98.67% # Writes before turning the bus around for reads
system.mem_ctrls.wrPerTurnAround::19                6      1.33%    100.00% # Writes before turning the bus around for reads
system.mem_ctrls.wrPerTurnAround::total           451                       # Writes before turning the bus around for reads
system.mem_ctrls.bytesReadWrQ                     128                       # Total number of bytes read from write queue
system.mem_ctrls.bytesReadSys                 2531072                       # Total read bytes from the system interface side
system.mem_ctrls.bytesWrittenSys               404992                       # Total written bytes from the system interface side
system.mem_ctrls.avgRdBWSys                     40.57                       # Average system read bandwidth in MiByte/s
system.mem_ctrls.avgWrBWSys                      6.49                       # Average system write bandwidth in MiByte/s
system.mem_ctrls.totGap                   62385216000                       # Total gap between requests
system.mem_ctrls.avgGap                     679933.04                       # Average gap between requests
system.mem_ctrls.requestorReadBytes::.cpu.inst        25856                       # Per-requestor bytes read from memory
system.mem_ctrls.requestorReadBytes::.cpu.data      2505152                       # Per-requestor bytes read from memory
system.mem_ctrls.requestorWriteBytes::.writebacks       259904                       # Per-requestor bytes write to memory
system.mem_ctrls.requestorReadRate::.cpu.inst 414449.545532494434                       # Per-requestor bytes read from memory rate (Bytes/sec)
system.mem_ctrls.requestorReadRate::.cpu.data 40155441.982124827802                       # Per-requestor bytes read from memory rate (Bytes/sec)
system.mem_ctrls.requestorWriteRate::.writebacks 4166038.624770940747                       # Per-requestor bytes write to memory rate (Bytes/sec)
system.mem_ctrls.requestorReadAccesses::.cpu.inst          808                       # Per-requestor read serviced memory accesses
system.mem_ctrls.requestorReadAccesses::.cpu.data        78288                       # Per-requestor read serviced memory accesses
system.mem_ctrls.requestorWriteAccesses::.writebacks        12656                       # Per-requestor write serviced memory accesses
system.mem_ctrls.requestorReadTotalLat::.cpu.inst     19397468                       # Per-requestor read total memory access latency
system.mem_ctrls.requestorReadTotalLat::.cpu.data   2062504102                       # Per-requestor read total memory access latency
system.mem_ctrls.requestorWriteTotalLat::.writebacks 1212737600098                       # Per-requestor write total memory access latency
system.mem_ctrls.requestorReadAvgLat::.cpu.inst     24006.77                       # Per-requestor read average memory access latency
system.mem_ctrls.requestorReadAvgLat::.cpu.data     26345.09                       # Per-requestor read average memory access latency
system.mem_ctrls.requestorWriteAvgLat::.writebacks  95823135.28                       # Per-requestor write average memory access latency
system.mem_ctrls.dram.bytes_read::.cpu.inst        25856                       # Number of bytes read from this memory
system.mem_ctrls.dram.bytes_read::.cpu.data      2505216                       # Number of bytes read from this memory
system.mem_ctrls.dram.bytes_read::total       2531072                       # Number of bytes read from this memory
system.mem_ctrls.dram.bytes_inst_read::.cpu.inst        25856                       # Number of instructions bytes read from this memory
system.mem_ctrls.dram.bytes_inst_read::total        25856                       # Number of instructions bytes read from this memory
system.mem_ctrls.dram.bytes_written::.writebacks       404992                       # Number of bytes written to this memory
system.mem_ctrls.dram.bytes_written::total       404992                       # Number of bytes written to this memory
system.mem_ctrls.dram.num_reads::.cpu.inst          808                       # Number of read requests responded to by this memory
system.mem_ctrls.dram.num_reads::.cpu.data        78288                       # Number of read requests responded to by this memory
system.mem_ctrls.dram.num_reads::total          79096                       # Number of read requests responded to by this memory
system.mem_ctrls.dram.num_writes::.writebacks        12656                       # Number of write requests responded to by this memory
system.mem_ctrls.dram.num_writes::total         12656                       # Number of write requests responded to by this memory
system.mem_ctrls.dram.bw_read::.cpu.inst       414450                       # Total read bandwidth from this memory (bytes/s)
system.mem_ctrls.dram.bw_read::.cpu.data     40156468                       # Total read bandwidth from this memory (bytes/s)
system.mem_ctrls.dram.bw_read::total         40570917                       # Total read bandwidth from this memory (bytes/s)
system.mem_ctrls.dram.bw_inst_read::.cpu.inst       414450                       # Instruction read bandwidth from this memory (bytes/s)
system.mem_ctrls.dram.bw_inst_read::total       414450                       # Instruction read bandwidth from this memory (bytes/s)
system.mem_ctrls.dram.bw_write::.writebacks      6491675                       # Write bandwidth from this memory (bytes/s)
system.mem_ctrls.dram.bw_write::total         6491675                       # Write bandwidth from this memory (bytes/s)
system.mem_ctrls.dram.bw_total::.writebacks      6491675                       # Total bandwidth to/from this memory (bytes/s)
system.mem_ctrls.dram.bw_total::.cpu.inst       414450                       # Total bandwidth to/from this memory (bytes/s)
system.mem_ctrls.dram.bw_total::.cpu.data     40156468                       # Total bandwidth to/from this memory (bytes/s)
system.mem_ctrls.dram.bw_total::total        47062592                       # Total bandwidth to/from this memory (bytes/s)
system.mem_ctrls.dram.readBursts                79094                       # Number of DRAM read bursts
system.mem_ctrls.dram.writeBursts                8122                       # Number of DRAM write bursts
system.mem_ctrls.dram.perBankRdBursts::0         2655                       # Per bank write bursts
system.mem_ctrls.dram.perBankRdBursts::1         2610                       # Per bank write bursts
system.mem_ctrls.dram.perBankRdBursts::2         2594                       # Per bank write bursts
system.mem_ctrls.dram.perBankRdBursts::3         2687                       # Per bank write bursts
system.mem_ctrls.dram.perBankRdBursts::4         2371                       # Per bank write bursts
system.mem_ctrls.dram.perBankRdBursts::5         2316                       # Per bank write bursts
system.mem_ctrls.dram.perBankRdBursts::6         2310                       # Per bank write bursts
system.mem_ctrls.dram.perBankRdBursts::7         2355                       # Per bank write bursts
system.mem_ctrls.dram.perBankRdBursts::8         2350                       # Per bank write bursts
system.mem_ctrls.dram.perBankRdBursts::9         2397                       # Per bank write bursts
system.mem_ctrls.dram.perBankRdBursts::10         2357                       # Per bank write bursts
system.mem_ctrls.dram.perBankRdBursts::11         2393                       # Per bank write bursts
system.mem_ctrls.dram.perBankRdBursts::12         2373                       # Per bank write bursts
system.mem_ctrls.dram.perBankRdBursts::13         2350                       # Per bank write bursts
system.mem_ctrls.dram.perBankRdBursts::14         2390                       # Per bank write bursts
system.mem_ctrls.dram.perBankRdBursts::15         2418                       # Per bank write bursts
system.mem_ctrls.dram.perBankRdBursts::16         2352                       # Per bank write bursts
system.mem_ctrls.dram.perBankRdBursts::17         2356                       # Per bank write bursts
system.mem_ctrls.dram.perBankRdBursts::18         2341                       # Per bank write bursts
system.mem_ctrls.dram.perBankRdBursts::19         2445                       # Per bank write bursts
system.mem_ctrls.dram.perBankRdBursts::20         2488                       # Per bank write bursts
system.mem_ctrls.dram.perBankRdBursts::21         2437                       # Per bank write bursts
system.mem_ctrls.dram.perBankRdBursts::22         2573                       # Per bank write bursts
system.mem_ctrls.dram.perBankRdBursts::23         2534                       # Per bank write bursts
system.mem_ctrls.dram.perBankRdBursts::24         2569                       # Per bank write bursts
system.mem_ctrls.dram.perBankRdBursts::25         2571                       # Per bank write bursts
system.mem_ctrls.dram.perBankRdBursts::26         2590                       # Per bank write bursts
system.mem_ctrls.dram.perBankRdBursts::27         2574                       # Per bank write bursts
system.mem_ctrls.dram.perBankRdBursts::28         2582                       # Per bank write bursts
system.mem_ctrls.dram.perBankRdBursts::29         2581                       # Per bank write bursts
system.mem_ctrls.dram.perBankRdBursts::30         2607                       # Per bank write bursts
system.mem_ctrls.dram.perBankRdBursts::31         2568                       # Per bank write bursts
system.mem_ctrls.dram.perBankWrBursts::0          398                       # Per bank write bursts
system.mem_ctrls.dram.perBankWrBursts::1          293                       # Per bank write bursts
system.mem_ctrls.dram.perBankWrBursts::2          392                       # Per bank write bursts
system.mem_ctrls.dram.perBankWrBursts::3          319                       # Per bank write bursts
system.mem_ctrls.dram.perBankWrBursts::4          180                       # Per bank write bursts
system.mem_ctrls.dram.perBankWrBursts::5          168                       # Per bank write bursts
system.mem_ctrls.dram.perBankWrBursts::6          161                       # Per bank write bursts
system.mem_ctrls.dram.perBankWrBursts::7          174                       # Per bank write bursts
system.mem_ctrls.dram.perBankWrBursts::8          158                       # Per bank write bursts
system.mem_ctrls.dram.perBankWrBursts::9          172                       # Per bank write bursts
system.mem_ctrls.dram.perBankWrBursts::10          159                       # Per bank write bursts
system.mem_ctrls.dram.perBankWrBursts::11          161                       # Per bank write bursts
system.mem_ctrls.dram.perBankWrBursts::12          163                       # Per bank write bursts
system.mem_ctrls.dram.perBankWrBursts::13          193                       # Per bank write bursts
system.mem_ctrls.dram.perBankWrBursts::14          133                       # Per bank write bursts
system.mem_ctrls.dram.perBankWrBursts::15          218                       # Per bank write bursts
system.mem_ctrls.dram.perBankWrBursts::16          177                       # Per bank write bursts
system.mem_ctrls.dram.perBankWrBursts::17          176                       # Per bank write bursts
system.mem_ctrls.dram.perBankWrBursts::18          177                       # Per bank write bursts
system.mem_ctrls.dram.perBankWrBursts::19          220                       # Per bank write bursts
system.mem_ctrls.dram.perBankWrBursts::20          283                       # Per bank write bursts
system.mem_ctrls.dram.perBankWrBursts::21          226                       # Per bank write bursts
system.mem_ctrls.dram.perBankWrBursts::22          332                       # Per bank write bursts
system.mem_ctrls.dram.perBankWrBursts::23          358                       # Per bank write bursts
system.mem_ctrls.dram.perBankWrBursts::24          324                       # Per bank write bursts
system.mem_ctrls.dram.perBankWrBursts::25          324                       # Per bank write bursts
system.mem_ctrls.dram.perBankWrBursts::26          358                       # Per bank write bursts
system.mem_ctrls.dram.perBankWrBursts::27          312                       # Per bank write bursts
system.mem_ctrls.dram.perBankWrBursts::28          360                       # Per bank write bursts
system.mem_ctrls.dram.perBankWrBursts::29          346                       # Per bank write bursts
system.mem_ctrls.dram.perBankWrBursts::30          354                       # Per bank write bursts
system.mem_ctrls.dram.perBankWrBursts::31          353                       # Per bank write bursts
system.mem_ctrls.dram.totQLat               698389322                       # Total ticks spent queuing
system.mem_ctrls.dram.totBusLat             263541208                       # Total ticks spent in databus transfers
system.mem_ctrls.dram.totMemAccLat         2081901570                       # Total ticks spent from burst creation until serviced by the DRAM
system.mem_ctrls.dram.avgQLat                 8829.86                       # Average queueing delay per DRAM burst
[...]
system.cpu.dcache.ReadReq_avg_mshr_miss_latency::total 32957.523880                       # average ReadReq mshr miss latency
system.cpu.dcache.WriteReq_hits::.cpu.data     14210627                       # number of WriteReq hits
system.cpu.dcache.WriteReq_hits::total       14210627                       # number of WriteReq hits
system.cpu.dcache.WriteReq_misses::.cpu.data        88189                       # number of WriteReq misses
system.cpu.dcache.WriteReq_misses::total        88189                       # number of WriteReq misses
system.cpu.dcache.WriteReq_miss_latency::.cpu.data   6764154500                       # number of WriteReq miss cycles
system.cpu.dcache.WriteReq_miss_latency::total   6764154500                       # number of WriteReq miss cycles
system.cpu.dcache.WriteReq_accesses::.cpu.data     14298816                       # number of WriteReq accesses(hits+misses)
system.cpu.dcache.WriteReq_accesses::total     14298816                       # number of WriteReq accesses(hits+misses)
system.cpu.dcache.WriteReq_miss_rate::.cpu.data     0.006168                       # miss rate for WriteReq accesses
system.cpu.dcache.WriteReq_miss_rate::total     0.006168                       # miss rate for WriteReq accesses
system.cpu.dcache.WriteReq_avg_miss_latency::.cpu.data 76700.659946                       # average WriteReq miss latency
system.cpu.dcache.WriteReq_avg_miss_latency::total 76700.659946                       # average WriteReq miss latency
system.cpu.dcache.WriteReq_mshr_hits::.cpu.data        16572                       # number of WriteReq MSHR hits
system.cpu.dcache.WriteReq_mshr_hits::total        16572                       # number of WriteReq MSHR hits
system.cpu.dcache.WriteReq_mshr_misses::.cpu.data        71617                       # number of WriteReq MSHR misses
system.cpu.dcache.WriteReq_mshr_misses::total        71617                       # number of WriteReq MSHR misses
system.cpu.dcache.WriteReq_mshr_miss_latency::.cpu.data   5651915500                       # number of WriteReq MSHR miss cycles
system.cpu.dcache.WriteReq_mshr_miss_latency::total   5651915500                       # number of WriteReq MSHR miss cycles
system.cpu.dcache.WriteReq_mshr_miss_rate::.cpu.data     0.005009                       # mshr miss rate for WriteReq accesses
system.cpu.dcache.WriteReq_mshr_miss_rate::total     0.005009                       # mshr miss rate for WriteReq accesses
system.cpu.dcache.WriteReq_avg_mshr_miss_latency::.cpu.data 78918.629655                       # average WriteReq mshr miss latency
system.cpu.dcache.WriteReq_avg_mshr_miss_latency::total 78918.629655                       # average WriteReq mshr miss latency
system.cpu.dcache.SoftPFReq_hits::.cpu.data         3323                       # number of SoftPFReq hits
system.cpu.dcache.SoftPFReq_hits::total          3323                       # number of SoftPFReq hits
system.cpu.dcache.SoftPFReq_misses::.cpu.data           38                       # number of SoftPFReq misses
system.cpu.dcache.SoftPFReq_misses::total           38                       # number of SoftPFReq misses
system.cpu.dcache.SoftPFReq_accesses::.cpu.data         3361                       # number of SoftPFReq accesses(hits+misses)
system.cpu.dcache.SoftPFReq_accesses::total         3361                       # number of SoftPFReq accesses(hits+misses)
system.cpu.dcache.SoftPFReq_miss_rate::.cpu.data     0.011306                       # miss rate for SoftPFReq accesses
system.cpu.dcache.SoftPFReq_miss_rate::total     0.011306                       # miss rate for SoftPFReq accesses
system.cpu.dcache.SoftPFReq_mshr_misses::.cpu.data           38                       # number of SoftPFReq MSHR misses
system.cpu.dcache.SoftPFReq_mshr_misses::total           38                       # number of SoftPFReq MSHR misses
system.cpu.dcache.SoftPFReq_mshr_miss_latency::.cpu.data      2610500                       # number of SoftPFReq MSHR miss cycles
system.cpu.dcache.SoftPFReq_mshr_miss_latency::total      2610500                       # number of SoftPFReq MSHR miss cycles
system.cpu.dcache.SoftPFReq_mshr_miss_rate::.cpu.data     0.011306                       # mshr miss rate for SoftPFReq accesses
system.cpu.dcache.SoftPFReq_mshr_miss_rate::total     0.011306                       # mshr miss rate for SoftPFReq accesses
system.cpu.dcache.SoftPFReq_avg_mshr_miss_latency::.cpu.data 68697.368421                       # average SoftPFReq mshr miss latency
system.cpu.dcache.SoftPFReq_avg_mshr_miss_latency::total 68697.368421                       # average SoftPFReq mshr miss latency
system.cpu.dcache.LoadLockedReq_hits::.cpu.data        89079                       # number of LoadLockedReq hits
system.cpu.dcache.LoadLockedReq_hits::total        89079                       # number of LoadLockedReq hits
system.cpu.dcache.LoadLockedReq_misses::.cpu.data            1                       # number of LoadLockedReq misses
system.cpu.dcache.LoadLockedReq_misses::total            1                       # number of LoadLockedReq misses
system.cpu.dcache.LoadLockedReq_miss_latency::.cpu.data        86500                       # number of LoadLockedReq miss cycles
system.cpu.dcache.LoadLockedReq_miss_latency::total        86500                       # number of LoadLockedReq miss cycles
system.cpu.dcache.LoadLockedReq_accesses::.cpu.data        89080                       # number of LoadLockedReq accesses(hits+misses)
system.cpu.dcache.LoadLockedReq_accesses::total        89080                       # number of LoadLockedReq accesses(hits+misses)
system.cpu.dcache.LoadLockedReq_miss_rate::.cpu.data     0.000011                       # miss rate for LoadLockedReq accesses
system.cpu.dcache.LoadLockedReq_miss_rate::total     0.000011                       # miss rate for LoadLockedReq accesses
system.cpu.dcache.LoadLockedReq_avg_miss_latency::.cpu.data        86500                       # average LoadLockedReq miss latency
system.cpu.dcache.LoadLockedReq_avg_miss_latency::total        86500                       # average LoadLockedReq miss latency
system.cpu.dcache.LoadLockedReq_mshr_misses::.cpu.data            1                       # number of LoadLockedReq MSHR misses
system.cpu.dcache.LoadLockedReq_mshr_misses::total            1                       # number of LoadLockedReq MSHR misses
system.cpu.dcache.LoadLockedReq_mshr_miss_latency::.cpu.data        85500                       # number of LoadLockedReq MSHR miss cycles
system.cpu.dcache.LoadLockedReq_mshr_miss_latency::total        85500                       # number of LoadLockedReq MSHR miss cycles
system.cpu.dcache.LoadLockedReq_mshr_miss_rate::.cpu.data     0.000011                       # mshr miss rate for LoadLockedReq accesses
system.cpu.dcache.LoadLockedReq_mshr_miss_rate::total     0.000011                       # mshr miss rate for LoadLockedReq accesses
system.cpu.dcache.LoadLockedReq_avg_mshr_miss_latency::.cpu.data        85500                       # average LoadLockedReq mshr miss latency
system.cpu.dcache.LoadLockedReq_avg_mshr_miss_latency::total        85500                       # average LoadLockedReq mshr miss latency
system.cpu.dcache.StoreCondReq_hits::.cpu.data        89080                       # number of StoreCondReq hits
system.cpu.dcache.StoreCondReq_hits::total        89080                       # number of StoreCondReq hits
system.cpu.dcache.StoreCondReq_accesses::.cpu.data        89080                       # number of StoreCondReq accesses(hits+misses)
system.cpu.dcache.StoreCondReq_accesses::total        89080                       # number of StoreCondReq accesses(hits+misses)
system.cpu.dcache.power_state.pwrStateResidencyTicks::UNDEFINED  62386363500                       # Cumulative time (in ticks) in various power states
system.cpu.dcache.tags.tagsinuse          2039.572034                       # Cycle average of tags in use
system.cpu.dcache.tags.total_refs            35987395                       # Total number of references to valid blocks.
system.cpu.dcache.tags.sampled_refs             93327                       # Sample count of references to valid blocks.
system.cpu.dcache.tags.avg_refs            385.605398                       # Average number of references to valid blocks.
system.cpu.dcache.tags.warmup_cycle            174500                       # Cycle when the warmup percentage was hit.
system.cpu.dcache.tags.occ_blocks::.cpu.data  2039.572034                       # Average occupied blocks per requestor
system.cpu.dcache.tags.occ_percent::.cpu.data     0.995885                       # Average percentage of cache occupancy
system.cpu.dcache.tags.occ_percent::total     0.995885                       # Average percentage of cache occupancy
system.cpu.dcache.tags.occ_task_id_blocks::1024         2048                       # Occupied blocks per task id
system.cpu.dcache.tags.age_task_id_blocks_1024::0            6                       # Occupied blocks per task id
system.cpu.dcache.tags.age_task_id_blocks_1024::1           68                       # Occupied blocks per task id
system.cpu.dcache.tags.age_task_id_blocks_1024::2          867                       # Occupied blocks per task id
system.cpu.dcache.tags.age_task_id_blocks_1024::3          986                       # Occupied blocks per task id
system.cpu.dcache.tags.age_task_id_blocks_1024::4          121                       # Occupied blocks per task id
system.cpu.dcache.tags.occ_task_id_percent::1024            1                       # Percentage of cache occupancy per task id
system.cpu.dcache.tags.tag_accesses          72109425                       # Number of tag accesses
system.cpu.dcache.tags.data_accesses         72109425                       # Number of data accesses
system.cpu.dcache.tags.power_state.pwrStateResidencyTicks::UNDEFINED  62386363500                       # Cumulative time (in ticks) in various power states
system.cpu.power_state.pwrStateResidencyTicks::ON  62386363500                       # Cumulative time (in ticks) in various power states
system.cpu.branchPred.lookups                20354150                       # Number of BP lookups
system.cpu.branchPred.condPredicted          16293188                       # Number of conditional branches predicted
system.cpu.branchPred.condIncorrect             53380                       # Number of conditional branches incorrect
system.cpu.branchPred.BTBLookups              8735659                       # Number of BTB lookups
system.cpu.branchPred.BTBHits                 8734442                       # Number of BTB hits
system.cpu.branchPred.BTBHitPct             99.986069                       # BTB Hit Percentage
system.cpu.branchPred.RASUsed                 1050544                       # Number of times the RAS was used to get a target.
system.cpu.branchPred.RASIncorrect                321                       # Number of incorrect RAS predictions.
system.cpu.branchPred.indirectLookups          433986                       # Number of indirect predictor lookups.
system.cpu.branchPred.indirectHits             300036                       # Number of indirect target hits.
system.cpu.branchPred.indirectMisses           133950                       # Number of indirect misses.
system.cpu.branchPred.indirectMispredicted         1044                       # Number of mispredicted indirect branches.
system.cpu.fetch2.intInstructions            49139213                       # Number of integer instructions successfully decoded
system.cpu.fetch2.fpInstructions                    0                       # Number of floating point instructions successfully decoded
system.cpu.fetch2.vecInstructions                   0                       # Number of SIMD instructions successfully decoded
system.cpu.fetch2.loadInstructions           17105764                       # Number of memory load instructions successfully decoded
system.cpu.fetch2.storeInstructions           9761903                       # Number of memory store instructions successfully decoded
system.cpu.fetch2.amoInstructions                   0                       # Number of memory atomic instructions successfully decoded
system.cpu.itb.instHits                             0                       # ITB inst hits
system.cpu.itb.instMisses                           0                       # ITB inst misses
system.cpu.itb.readHits                             0                       # DTB read hits
system.cpu.itb.readMisses                           0                       # DTB read misses
system.cpu.itb.writeHits                            0                       # DTB write hits
system.cpu.itb.writeMisses                          0                       # DTB write misses
system.cpu.itb.inserts                              0                       # Number of times an entry is inserted into the TLB
system.cpu.itb.flushTlb                             0                       # Number of times complete TLB was flushed
system.cpu.itb.flushTlbMva                          0                       # Number of times TLB was flushed by MVA
system.cpu.itb.flushTlbMvaAsid                      0                       # Number of times TLB was flushed by MVA & ASID
system.cpu.itb.flushTlbAsid                         0                       # Number of times TLB was flushed by ASID
system.cpu.itb.flushedEntries                       0                       # Number of entries that have been flushed from TLB
system.cpu.itb.alignFaults                          0                       # Number of TLB faults due to alignment restrictions
system.cpu.itb.prefetchFaults                       0                       # Number of TLB faults due to prefetch
system.cpu.itb.domainFaults                         0                       # Number of TLB faults due to domain restrictions
system.cpu.itb.permsFaults                          0                       # Number of TLB faults due to permissions restrictions
system.cpu.itb.readAccesses                         0                       # DTB read accesses
system.cpu.itb.writeAccesses                        0                       # DTB write accesses
system.cpu.itb.instAccesses                         0                       # ITB inst accesses
system.cpu.itb.hits                                 0                       # Total TLB (inst and data) hits
system.cpu.itb.misses                               0                       # Total TLB (inst and data) misses
system.cpu.itb.accesses                             0                       # Total TLB (inst and data) accesses
system.cpu.itb.walker.walks                         0                       # Table walker walks requested
system.cpu.itb.walker.requestOrigin_Requested::Data            0                       # Table walker requests started/completed, data/inst
system.cpu.itb.walker.requestOrigin_Requested::Inst            0                       # Table walker requests started/completed, data/inst
system.cpu.itb.walker.requestOrigin_Requested::total            0                       # Table walker requests started/completed, data/inst
system.cpu.itb.walker.requestOrigin_Completed::Data            0                       # Table walker requests started/completed, data/inst
system.cpu.itb.walker.requestOrigin_Completed::Inst            0                       # Table walker requests started/completed, data/inst
system.cpu.itb.walker.requestOrigin_Completed::total            0                       # Table walker requests started/completed, data/inst
system.cpu.itb.walker.requestOrigin::total            0                       # Table walker requests started/completed, data/inst
system.cpu.itb.walker.power_state.pwrStateResidencyTicks::UNDEFINED  62386363500                       # Cumulative time (in ticks) in various power states
system.cpu.itb.stage2_mmu.stage2_tlb.instHits            0                       # ITB inst hits
system.cpu.itb.stage2_mmu.stage2_tlb.instMisses            0                       # ITB inst misses
system.cpu.itb.stage2_mmu.stage2_tlb.readHits            0                       # DTB read hits
system.cpu.itb.stage2_mmu.stage2_tlb.readMisses            0                       # DTB read misses
system.cpu.itb.stage2_mmu.stage2_tlb.writeHits            0                       # DTB write hits
system.cpu.itb.stage2_mmu.stage2_tlb.writeMisses            0                       # DTB write misses
system.cpu.itb.stage2_mmu.stage2_tlb.inserts            0                       # Number of times an entry is inserted into the TLB
system.cpu.itb.stage2_mmu.stage2_tlb.flushTlb            0                       # Number of times complete TLB was flushed
system.cpu.itb.stage2_mmu.stage2_tlb.flushTlbMva            0                       # Number of times TLB was flushed by MVA
system.cpu.itb.stage2_mmu.stage2_tlb.flushTlbMvaAsid            0                       # Number of times TLB was flushed by MVA & ASID
system.cpu.itb.stage2_mmu.stage2_tlb.flushTlbAsid            0                       # Number of times TLB was flushed by ASID
system.cpu.itb.stage2_mmu.stage2_tlb.flushedEntries            0                       # Number of entries that have been flushed from TLB
system.cpu.itb.stage2_mmu.stage2_tlb.alignFaults            0                       # Number of TLB faults due to alignment restrictions
system.cpu.itb.stage2_mmu.stage2_tlb.prefetchFaults            0                       # Number of TLB faults due to prefetch
system.cpu.itb.stage2_mmu.stage2_tlb.domainFaults            0                       # Number of TLB faults due to domain restrictions
system.cpu.itb.stage2_mmu.stage2_tlb.permsFaults            0                       # Number of TLB faults due to permissions restrictions
system.cpu.itb.stage2_mmu.stage2_tlb.readAccesses            0                       # DTB read accesses
system.cpu.itb.stage2_mmu.stage2_tlb.writeAccesses            0                       # DTB write accesses
system.cpu.itb.stage2_mmu.stage2_tlb.instAccesses            0                       # ITB inst accesses
system.cpu.itb.stage2_mmu.stage2_tlb.hits            0                       # Total TLB (inst and data) hits
system.cpu.itb.stage2_mmu.stage2_tlb.misses            0                       # Total TLB (inst and data) misses
system.cpu.itb.stage2_mmu.stage2_tlb.accesses            0                       # Total TLB (inst and data) accesses
system.cpu.itb.stage2_mmu.stage2_tlb.walker.walks            0                       # Table walker walks requested
system.cpu.itb.stage2_mmu.stage2_tlb.walker.requestOrigin_Requested::Data            0                       # Table walker requests started/completed, data/inst
system.cpu.itb.stage2_mmu.stage2_tlb.walker.requestOrigin_Requested::Inst            0                       # Table walker requests started/completed, data/inst
system.cpu.itb.stage2_mmu.stage2_tlb.walker.requestOrigin_Requested::total            0                       # Table walker requests started/completed, data/inst
system.cpu.itb.stage2_mmu.stage2_tlb.walker.requestOrigin_Completed::Data            0                       # Table walker requests started/completed, data/inst
system.cpu.itb.stage2_mmu.stage2_tlb.walker.requestOrigin_Completed::Inst            0                       # Table walker requests started/completed, data/inst
system.cpu.itb.stage2_mmu.stage2_tlb.walker.requestOrigin_Completed::total            0                       # Table walker requests started/completed, data/inst
system.cpu.itb.stage2_mmu.stage2_tlb.walker.requestOrigin::total            0                       # Table walker requests started/completed, data/inst
system.cpu.itb.stage2_mmu.stage2_tlb.walker.power_state.pwrStateResidencyTicks::UNDEFINED  62386363500                       # Cumulative time (in ticks) in various power states

---------- End Simulation Statistics   ----------
