
---------- Begin Simulation Statistics ----------
final_tick                               244364636500                       # Number of ticks from beginning of simulation (restored from checkpoints and never reset)
host_inst_rate                                 171659                       # Simulator instruction rate (inst/s)
host_mem_usage                                 677520                       # Number of bytes of host memory used
host_op_rate                                   316229                       # Simulator op (including micro ops) rate (op/s)
host_seconds                                   582.55                       # Real time elapsed on the host
host_tick_rate                              419474908                       # Simulator tick rate (ticks/s)
sim_freq                                 1000000000000                       # Frequency of simulated ticks
sim_insts                                   100000000                       # Number of instructions simulated
sim_ops                                     184218810                       # Number of ops (including micro ops) simulated
sim_seconds                                  0.244365                       # Number of seconds simulated
sim_ticks                                244364636500                       # Number of ticks simulated
system.cpu.committedInsts                   100000000                       # Number of instructions committed
system.cpu.committedOps                     184218810                       # Number of ops (including micro ops) committed
system.cpu.cpi                               4.887293                       # CPI: cycles per instruction
system.cpu.discardedOps                          4371                       # Number of ops (including micro ops) which were discarded before commit
system.cpu.idleCycles                       270994782                       # Total number of cycles that the object has spent stopped
system.cpu.ipc                               0.204612                       # IPC: instructions per cycle
system.cpu.numCycles                        488729273                       # number of cpu cycles simulated
system.cpu.numFetchSuspends                         0                       # Number of times Execute suspended instruction fetching
system.cpu.numWorkItemsCompleted                    0                       # number of work items this cpu completed
system.cpu.numWorkItemsStarted                      0                       # number of work items this cpu started
system.cpu.op_class_0::No_OpClass                   0      0.00%      0.00% # Class of committed instruction
system.cpu.op_class_0::IntAlu                97640467     53.00%     53.00% # Class of committed instruction
system.cpu.op_class_0::IntMult                 114702      0.06%     53.06% # Class of committed instruction
system.cpu.op_class_0::IntDiv                       0      0.00%     53.06% # Class of committed instruction
system.cpu.op_class_0::FloatAdd                     0      0.00%     53.06% # Class of committed instruction
system.cpu.op_class_0::FloatCmp                     0      0.00%     53.06% # Class of committed instruction
system.cpu.op_class_0::FloatCvt                     0      0.00%     53.06% # Class of committed instruction
system.cpu.op_class_0::FloatMult                    0      0.00%     53.06% # Class of committed instruction
system.cpu.op_class_0::FloatMultAcc                 0      0.00%     53.06% # Class of committed instruction
system.cpu.op_class_0::FloatDiv                     0      0.00%     53.06% # Class of committed instruction
system.cpu.op_class_0::FloatMisc                    0      0.00%     53.06% # Class of committed instruction
system.cpu.op_class_0::FloatSqrt                    0      0.00%     53.06% # Class of committed instruction
system.cpu.op_class_0::SimdAdd                      8      0.00%     53.06% # Class of committed instruction
system.cpu.op_class_0::SimdAddAcc                   0      0.00%     53.06% # Class of committed instruction
system.cpu.op_class_0::SimdAlu                     10      0.00%     53.06% # Class of committed instruction
system.cpu.op_class_0::SimdCmp                      8      0.00%     53.06% # Class of committed instruction
system.cpu.op_class_0::SimdCvt                      0      0.00%     53.06% # Class of committed instruction
system.cpu.op_class_0::SimdMisc                     1      0.00%     53.06% # Class of committed instruction
system.cpu.op_class_0::SimdMult                     0      0.00%     53.06% # Class of committed instruction
system.cpu.op_class_0::SimdMultAcc                  0      0.00%     53.06% # Class of committed instruction
system.cpu.op_class_0::SimdShift                    0      0.00%     53.06% # Class of committed instruction
system.cpu.op_class_0::SimdShiftAcc                 0      0.00%     53.06% # Class of committed instruction
system.cpu.op_class_0::SimdDiv                      0      0.00%     53.06% # Class of committed instruction
system.cpu.op_class_0::SimdSqrt                     0      0.00%     53.06% # Class of committed instruction
system.cpu.op_class_0::SimdFloatAdd                 0      0.00%     53.06% # Class of committed instruction
system.cpu.op_class_0::SimdFloatAlu                 0      0.00%     53.06% # Class of committed instruction
system.cpu.op_class_0::SimdFloatCmp                 0      0.00%     53.06% # Class of committed instruction
system.cpu.op_class_0::SimdFloatCvt                 0      0.00%     53.06% # Class of committed instruction
system.cpu.op_class_0::SimdFloatDiv                 0      0.00%     53.06% # Class of committed instruction
system.cpu.op_class_0::SimdFloatMisc               24      0.00%     53.06% # Class of committed instruction
system.cpu.op_class_0::SimdFloatMult                0      0.00%     53.06% # Class of committed instruction
system.cpu.op_class_0::SimdFloatMultAcc             0      0.00%     53.06% # Class of committed instruction
system.cpu.op_class_0::SimdFloatSqrt                0      0.00%     53.06% # Class of committed instruction
system.cpu.op_class_0::SimdReduceAdd                0      0.00%     53.06% # Class of committed instruction
system.cpu.op_class_0::SimdReduceAlu                0      0.00%     53.06% # Class of committed instruction
system.cpu.op_class_0::SimdReduceCmp                0      0.00%     53.06% # Class of committed instruction
system.cpu.op_class_0::SimdFloatReduceAdd            0      0.00%     53.06% # Class of committed instruction
system.cpu.op_class_0::SimdFloatReduceCmp            0      0.00%     53.06% # Class of committed instruction
system.cpu.op_class_0::SimdAes                      0      0.00%     53.06% # Class of committed instruction
system.cpu.op_class_0::SimdAesMix                   0      0.00%     53.06% # Class of committed instruction
system.cpu.op_class_0::SimdSha1Hash                 0      0.00%     53.06% # Class of committed instruction
system.cpu.op_class_0::SimdSha1Hash2                0      0.00%     53.06% # Class of committed instruction
system.cpu.op_class_0::SimdSha256Hash               0      0.00%     53.06% # Class of committed instruction
system.cpu.op_class_0::SimdSha256Hash2              0      0.00%     53.06% # Class of committed instruction
system.cpu.op_class_0::SimdShaSigma2                0      0.00%     53.06% # Class of committed instruction
system.cpu.op_class_0::SimdShaSigma3                0      0.00%     53.06% # Class of committed instruction
system.cpu.op_class_0::SimdPredAlu                  0      0.00%     53.06% # Class of committed instruction
system.cpu.op_class_0::MemRead                2082677      1.13%     54.20% # Class of committed instruction
system.cpu.op_class_0::MemWrite              84380913     45.80%    100.00% # Class of committed instruction
system.cpu.op_class_0::FloatMemRead                 0      0.00%    100.00% # Class of committed instruction
system.cpu.op_class_0::FloatMemWrite                0      0.00%    100.00% # Class of committed instruction
system.cpu.op_class_0::IprAccess                    0      0.00%    100.00% # Class of committed instruction
system.cpu.op_class_0::InstPrefetch                 0      0.00%    100.00% # Class of committed instruction
system.cpu.op_class_0::total                184218810                       # Class of committed instruction
system.cpu.tickCycles                       217734491                       # Number of cycles that the object actually ticked
system.cpu.workload.numSyscalls                    19                       # Number of system calls
system.membus.snoop_filter.hit_multi_requests            0                       # Number of requests hitting in the snoop filter with multiple (>1) holders of the requested data.
system.membus.snoop_filter.hit_multi_snoops            0                       # Number of snoops hitting in the snoop filter with multiple (>1) holders of the requested data.
system.membus.snoop_filter.hit_single_requests      1307975                       # Number of requests hitting in the snoop filter with a single holder of the requested data.
system.membus.snoop_filter.hit_single_snoops            0                       # Number of snoops hitting in the snoop filter with a single holder of the requested data.
system.membus.snoop_filter.tot_requests       2624259                       # Total number of requests made to the snoop filter.
system.membus.snoop_filter.tot_snoops               0                       # Total number of snoops made to the snoop filter.
system.tol2bus.snoop_filter.hit_multi_requests           61                       # Number of requests hitting in the snoop filter with multiple (>1) holders of the requested data.
system.tol2bus.snoop_filter.hit_multi_snoops            0                       # Number of snoops hitting in the snoop filter with multiple (>1) holders of the requested data.
system.tol2bus.snoop_filter.hit_single_requests      1316065                       # Number of requests hitting in the snoop filter with a single holder of the requested data.
system.tol2bus.snoop_filter.hit_single_snoops          208                       # Number of snoops hitting in the snoop filter with a single holder of the requested data.
system.tol2bus.snoop_filter.tot_requests      2632514                       # Total number of requests made to the snoop filter.
system.tol2bus.snoop_filter.tot_snoops            208                       # Total number of snoops made to the snoop filter.
system.membus.trans_dist::ReadResp                420                       # Transaction distribution
system.membus.trans_dist::WritebackDirty      1307703                       # Transaction distribution
system.membus.trans_dist::CleanEvict              261                       # Transaction distribution
system.membus.trans_dist::ReadExReq           1315875                       # Transaction distribution
system.membus.trans_dist::ReadExResp          1315875                       # Transaction distribution
system.membus.trans_dist::ReadSharedReq           420                       # Transaction distribution
system.membus.pkt_count_system.l2.mem_side_port::system.mem_ctrls.port      3940554                       # Packet count per connected requestor and responder (bytes)
system.membus.pkt_count::total                3940554                       # Packet count per connected requestor and responder (bytes)
system.membus.pkt_size_system.l2.mem_side_port::system.mem_ctrls.port    671743488                       # Cumulative packet size per connected requestor and responder (bytes)
system.membus.pkt_size::total               671743488                       # Cumulative packet size per connected requestor and responder (bytes)
system.membus.snoops                                0                       # Total snoops (count)
system.membus.snoopTraffic                          0                       # Total snoop traffic (bytes)
system.membus.snoop_fanout::samples           1316295                       # Request fanout histogram
system.membus.snoop_fanout::mean                    0                       # Request fanout histogram
system.membus.snoop_fanout::stdev                   0                       # Request fanout histogram
system.membus.snoop_fanout::underflows              0      0.00%      0.00% # Request fanout histogram
system.membus.snoop_fanout::0                 1316295    100.00%    100.00% # Request fanout histogram
system.membus.snoop_fanout::1                       0      0.00%    100.00% # Request fanout histogram
system.membus.snoop_fanout::overflows               0      0.00%    100.00% # Request fanout histogram
system.membus.snoop_fanout::min_value               0                       # Request fanout histogram
system.membus.snoop_fanout::max_value               0                       # Request fanout histogram
system.membus.snoop_fanout::total             1316295                       # Request fanout histogram
system.membus.reqLayer0.occupancy         23569745000                       # Layer occupancy (ticks)
system.membus.reqLayer0.utilization               9.6                       # Layer utilization (%)
system.membus.respLayer1.occupancy        22992247914                       # Layer occupancy (ticks)
system.membus.respLayer1.utilization              9.4                       # Layer utilization (%)
system.membus.power_state.pwrStateResidencyTicks::UNDEFINED 244364636500                       # Cumulative time (in ticks) in various power states
system.tol2bus.trans_dist::ReadResp               563                       # Transaction distribution
system.tol2bus.trans_dist::WritebackDirty      2623364                       # Transaction distribution
system.tol2bus.trans_dist::WritebackClean          237                       # Transaction distribution
system.tol2bus.trans_dist::CleanEvict             636                       # Transaction distribution
system.tol2bus.trans_dist::ReadExReq          1315886                       # Transaction distribution
system.tol2bus.trans_dist::ReadExResp         1315886                       # Transaction distribution
system.tol2bus.trans_dist::ReadCleanReq           365                       # Transaction distribution
system.tol2bus.trans_dist::ReadSharedReq          198                       # Transaction distribution
system.tol2bus.pkt_count_system.cpu.icache.mem_side_port::system.l2.cpu_side_port          967                       # Packet count per connected requestor and responder (bytes)
system.tol2bus.pkt_count_system.cpu.dcache.mem_side_port::system.l2.cpu_side_port      3947996                       # Packet count per connected requestor and responder (bytes)
system.tol2bus.pkt_count::total               3948963                       # Packet count per connected requestor and responder (bytes)
system.tol2bus.pkt_size_system.cpu.icache.mem_side_port::system.l2.cpu_side_port       154112                       # Cumulative packet size per connected requestor and responder (bytes)
system.tol2bus.pkt_size_system.cpu.dcache.mem_side_port::system.l2.cpu_side_port    673726720                       # Cumulative packet size per connected requestor and responder (bytes)
system.tol2bus.pkt_size::total              673880832                       # Cumulative packet size per connected requestor and responder (bytes)
system.tol2bus.snoops                         1308172                       # Total snoops (count)
system.tol2bus.snoopTraffic                 334771968                       # Total snoop traffic (bytes)
system.tol2bus.snoop_fanout::samples          2624621                       # Request fanout histogram
system.tol2bus.snoop_fanout::mean            0.000102                       # Request fanout histogram
system.tol2bus.snoop_fanout::stdev           0.010123                       # Request fanout histogram
system.tol2bus.snoop_fanout::underflows             0      0.00%      0.00% # Request fanout histogram
system.tol2bus.snoop_fanout::0                2624352     99.99%     99.99% # Request fanout histogram
system.tol2bus.snoop_fanout::1                    269      0.01%    100.00% # Request fanout histogram
system.tol2bus.snoop_fanout::2                      0      0.00%    100.00% # Request fanout histogram
system.tol2bus.snoop_fanout::overflows              0      0.00%    100.00% # Request fanout histogram
system.tol2bus.snoop_fanout::min_value              0                       # Request fanout histogram
system.tol2bus.snoop_fanout::max_value              1                       # Request fanout histogram
system.tol2bus.snoop_fanout::total            2624621                       # Request fanout histogram
system.tol2bus.reqLayer0.occupancy         6579849000                       # Layer occupancy (ticks)
system.tol2bus.reqLayer0.utilization              2.7                       # Layer utilization (%)
system.tol2bus.respLayer1.occupancy        5922381992                       # Layer occupancy (ticks)
system.tol2bus.respLayer1.utilization             2.4                       # Layer utilization (%)
system.tol2bus.respLayer0.occupancy           1642999                       # Layer occupancy (ticks)
system.tol2bus.respLayer0.utilization             0.0                       # Layer utilization (%)
system.tol2bus.power_state.pwrStateResidencyTicks::UNDEFINED 244364636500                       # Cumulative time (in ticks) in various power states
system.voltage_domain.voltage                       1                       # Voltage in Volts
system.clk_domain.clock                          1000                       # Clock period in ticks
system.l2.demand_hits::.cpu.inst                   91                       # number of demand (read+write) hits
system.l2.demand_hits::.cpu.data                   54                       # number of demand (read+write) hits
system.l2.demand_hits::total                      145                       # number of demand (read+write) hits
system.l2.overall_hits::.cpu.inst                  91                       # number of overall hits
system.l2.overall_hits::.cpu.data                  54                       # number of overall hits
system.l2.overall_hits::total                     145                       # number of overall hits
system.l2.demand_misses::.cpu.inst                274                       # number of demand (read+write) misses
system.l2.demand_misses::.cpu.data            1316030                       # number of demand (read+write) misses
system.l2.demand_misses::total                1316304                       # number of demand (read+write) misses
system.l2.overall_misses::.cpu.inst               274                       # number of overall misses
system.l2.overall_misses::.cpu.data           1316030                       # number of overall misses
system.l2.overall_misses::total               1316304                       # number of overall misses
system.l2.demand_miss_latency::.cpu.inst     27626000                       # number of demand (read+write) miss cycles
system.l2.demand_miss_latency::.cpu.data 140674032000                       # number of demand (read+write) miss cycles
system.l2.demand_miss_latency::total     140701658000                       # number of demand (read+write) miss cycles
system.l2.overall_miss_latency::.cpu.inst     27626000                       # number of overall miss cycles
system.l2.overall_miss_latency::.cpu.data 140674032000                       # number of overall miss cycles
system.l2.overall_miss_latency::total    140701658000                       # number of overall miss cycles
system.l2.demand_accesses::.cpu.inst              365                       # number of demand (read+write) accesses
system.l2.demand_accesses::.cpu.data          1316084                       # number of demand (read+write) accesses
system.l2.demand_accesses::total              1316449                       # number of demand (read+write) accesses
system.l2.overall_accesses::.cpu.inst             365                       # number of overall (read+write) accesses
system.l2.overall_accesses::.cpu.data         1316084                       # number of overall (read+write) accesses
system.l2.overall_accesses::total             1316449                       # number of overall (read+write) accesses
system.l2.demand_miss_rate::.cpu.inst        0.750685                       # miss rate for demand accesses
system.l2.demand_miss_rate::.cpu.data        0.999959                       # miss rate for demand accesses
system.l2.demand_miss_rate::total            0.999890                       # miss rate for demand accesses
system.l2.overall_miss_rate::.cpu.inst       0.750685                       # miss rate for overall accesses
system.l2.overall_miss_rate::.cpu.data       0.999959                       # miss rate for overall accesses
system.l2.overall_miss_rate::total           0.999890                       # miss rate for overall accesses
system.l2.demand_avg_miss_latency::.cpu.inst 100824.817518                       # average overall miss latency
system.l2.demand_avg_miss_latency::.cpu.data 106892.724330                       # average overall miss latency
system.l2.demand_avg_miss_latency::total 106891.461243                       # average overall miss latency
system.l2.overall_avg_miss_latency::.cpu.inst 100824.817518                       # average overall miss latency
system.l2.overall_avg_miss_latency::.cpu.data 106892.724330                       # average overall miss latency
system.l2.overall_avg_miss_latency::total 106891.461243                       # average overall miss latency
system.l2.blocked_cycles::no_mshrs                  0                       # number of cycles access was blocked
system.l2.blocked_cycles::no_targets                0                       # number of cycles access was blocked
system.l2.blocked::no_mshrs                         0                       # number of cycles access was blocked
system.l2.blocked::no_targets                       0                       # number of cycles access was blocked
system.l2.avg_blocked_cycles::no_mshrs            nan                       # average number of cycles each access was blocked
system.l2.avg_blocked_cycles::no_targets          nan                       # average number of cycles each access was blocked
system.l2.writebacks::.writebacks             1307703                       # number of writebacks
system.l2.writebacks::total                   1307703                       # number of writebacks
system.l2.demand_mshr_hits::.cpu.inst               1                       # number of demand (read+write) MSHR hits
system.l2.demand_mshr_hits::.cpu.data               8                       # number of demand (read+write) MSHR hits
system.l2.demand_mshr_hits::total                   9                       # number of demand (read+write) MSHR hits
system.l2.overall_mshr_hits::.cpu.inst              1                       # number of overall MSHR hits
system.l2.overall_mshr_hits::.cpu.data              8                       # number of overall MSHR hits
system.l2.overall_mshr_hits::total                  9                       # number of overall MSHR hits
system.l2.demand_mshr_misses::.cpu.inst           273                       # number of demand (read+write) MSHR misses
system.l2.demand_mshr_misses::.cpu.data       1316022                       # number of demand (read+write) MSHR misses
system.l2.demand_mshr_misses::total           1316295                       # number of demand (read+write) MSHR misses
system.l2.overall_mshr_misses::.cpu.inst          273                       # number of overall MSHR misses
system.l2.overall_mshr_misses::.cpu.data      1316022                       # number of overall MSHR misses
system.l2.overall_mshr_misses::total          1316295                       # number of overall MSHR misses
system.l2.demand_mshr_miss_latency::.cpu.inst     24742500                       # number of demand (read+write) MSHR miss cycles
system.l2.demand_mshr_miss_latency::.cpu.data 127513143000                       # number of demand (read+write) MSHR miss cycles
system.l2.demand_mshr_miss_latency::total 127537885500                       # number of demand (read+write) MSHR miss cycles
system.l2.overall_mshr_miss_latency::.cpu.inst     24742500                       # number of overall MSHR miss cycles
system.l2.overall_mshr_miss_latency::.cpu.data 127513143000                       # number of overall MSHR miss cycles
system.l2.overall_mshr_miss_latency::total 127537885500                       # number of overall MSHR miss cycles
system.l2.demand_mshr_miss_rate::.cpu.inst     0.747945                       # mshr miss rate for demand accesses
system.l2.demand_mshr_miss_rate::.cpu.data     0.999953                       # mshr miss rate for demand accesses
system.l2.demand_mshr_miss_rate::total       0.999883                       # mshr miss rate for demand accesses
system.l2.overall_mshr_miss_rate::.cpu.inst     0.747945                       # mshr miss rate for overall accesses
system.l2.overall_mshr_miss_rate::.cpu.data     0.999953                       # mshr miss rate for overall accesses
system.l2.overall_mshr_miss_rate::total      0.999883                       # mshr miss rate for overall accesses
system.l2.demand_avg_mshr_miss_latency::.cpu.inst 90631.868132                       # average overall mshr miss latency
system.l2.demand_avg_mshr_miss_latency::.cpu.data 96892.865773                       # average overall mshr miss latency
system.l2.demand_avg_mshr_miss_latency::total 96891.567240                       # average overall mshr miss latency
system.l2.overall_avg_mshr_miss_latency::.cpu.inst 90631.868132                       # average overall mshr miss latency
system.l2.overall_avg_mshr_miss_latency::.cpu.data 96892.865773                       # average overall mshr miss latency
system.l2.overall_avg_mshr_miss_latency::total 96891.567240                       # average overall mshr miss latency
system.l2.replacements                        1308172                       # number of replacements
system.l2.WritebackDirty_hits::.writebacks      1315661                       # number of WritebackDirty hits
system.l2.WritebackDirty_hits::total          1315661                       # number of WritebackDirty hits
system.l2.WritebackDirty_accesses::.writebacks      1315661                       # number of WritebackDirty accesses(hits+misses)
system.l2.WritebackDirty_accesses::total      1315661                       # number of WritebackDirty accesses(hits+misses)
system.l2.WritebackClean_hits::.writebacks          221                       # number of WritebackClean hits
system.l2.WritebackClean_hits::total              221                       # number of WritebackClean hits
system.l2.WritebackClean_accesses::.writebacks          221                       # number of WritebackClean accesses(hits+misses)
system.l2.WritebackClean_accesses::total          221                       # number of WritebackClean accesses(hits+misses)
system.l2.ReadExReq_hits::.cpu.data                11                       # number of ReadExReq hits
system.l2.ReadExReq_hits::total                    11                       # number of ReadExReq hits
system.l2.ReadExReq_misses::.cpu.data         1315875                       # number of ReadExReq misses
system.l2.ReadExReq_misses::total             1315875                       # number of ReadExReq misses
system.l2.ReadExReq_miss_latency::.cpu.data 140657993500                       # number of ReadExReq miss cycles
system.l2.ReadExReq_miss_latency::total  140657993500                       # number of ReadExReq miss cycles
system.l2.ReadExReq_accesses::.cpu.data       1315886                       # number of ReadExReq accesses(hits+misses)
system.l2.ReadExReq_accesses::total           1315886                       # number of ReadExReq accesses(hits+misses)
system.l2.ReadExReq_miss_rate::.cpu.data     0.999992                       # miss rate for ReadExReq accesses
system.l2.ReadExReq_miss_rate::total         0.999992                       # miss rate for ReadExReq accesses
system.l2.ReadExReq_avg_miss_latency::.cpu.data 106893.127007                       # average ReadExReq miss latency
system.l2.ReadExReq_avg_miss_latency::total 106893.127007                       # average ReadExReq miss latency
system.l2.ReadExReq_mshr_misses::.cpu.data      1315875                       # number of ReadExReq MSHR misses
system.l2.ReadExReq_mshr_misses::total        1315875                       # number of ReadExReq MSHR misses
system.l2.ReadExReq_mshr_miss_latency::.cpu.data 127499243500                       # number of ReadExReq MSHR miss cycles
system.l2.ReadExReq_mshr_miss_latency::total 127499243500                       # number of ReadExReq MSHR miss cycles
system.l2.ReadExReq_mshr_miss_rate::.cpu.data     0.999992                       # mshr miss rate for ReadExReq accesses
system.l2.ReadExReq_mshr_miss_rate::total     0.999992                       # mshr miss rate for ReadExReq accesses
system.l2.ReadExReq_avg_mshr_miss_latency::.cpu.data 96893.127007                       # average ReadExReq mshr miss latency
system.l2.ReadExReq_avg_mshr_miss_latency::total 96893.127007                       # average ReadExReq mshr miss latency
system.l2.ReadCleanReq_hits::.cpu.inst             91                       # number of ReadCleanReq hits
system.l2.ReadCleanReq_hits::total                 91                       # number of ReadCleanReq hits
system.l2.ReadCleanReq_misses::.cpu.inst          274                       # number of ReadCleanReq misses
system.l2.ReadCleanReq_misses::total              274                       # number of ReadCleanReq misses
system.l2.ReadCleanReq_miss_latency::.cpu.inst     27626000                       # number of ReadCleanReq miss cycles
system.l2.ReadCleanReq_miss_latency::total     27626000                       # number of ReadCleanReq miss cycles
system.l2.ReadCleanReq_accesses::.cpu.inst          365                       # number of ReadCleanReq accesses(hits+misses)
system.l2.ReadCleanReq_accesses::total            365                       # number of ReadCleanReq accesses(hits+misses)
system.l2.ReadCleanReq_miss_rate::.cpu.inst     0.750685                       # miss rate for ReadCleanReq accesses
system.l2.ReadCleanReq_miss_rate::total      0.750685                       # miss rate for ReadCleanReq accesses
system.l2.ReadCleanReq_avg_miss_latency::.cpu.inst 100824.817518                       # average ReadCleanReq miss latency
system.l2.ReadCleanReq_avg_miss_latency::total 100824.817518                       # average ReadCleanReq miss latency
system.l2.ReadCleanReq_mshr_hits::.cpu.inst            1                       # number of ReadCleanReq MSHR hits
system.l2.ReadCleanReq_mshr_hits::total             1                       # number of ReadCleanReq MSHR hits
system.l2.ReadCleanReq_mshr_misses::.cpu.inst          273                       # number of ReadCleanReq MSHR misses
system.l2.ReadCleanReq_mshr_misses::total          273                       # number of ReadCleanReq MSHR misses
system.l2.ReadCleanReq_mshr_miss_latency::.cpu.inst     24742500                       # number of ReadCleanReq MSHR miss cycles
system.l2.ReadCleanReq_mshr_miss_latency::total     24742500                       # number of ReadCleanReq MSHR miss cycles
system.l2.ReadCleanReq_mshr_miss_rate::.cpu.inst     0.747945                       # mshr miss rate for ReadCleanReq accesses
system.l2.ReadCleanReq_mshr_miss_rate::total     0.747945                       # mshr miss rate for ReadCleanReq accesses
system.l2.ReadCleanReq_avg_mshr_miss_latency::.cpu.inst 90631.868132                       # average ReadCleanReq mshr miss latency
system.l2.ReadCleanReq_avg_mshr_miss_latency::total 90631.868132                       # average ReadCleanReq mshr miss latency
system.l2.ReadSharedReq_hits::.cpu.data            43                       # number of ReadSharedReq hits
system.l2.ReadSharedReq_hits::total                43                       # number of ReadSharedReq hits
system.l2.ReadSharedReq_misses::.cpu.data          155                       # number of ReadSharedReq misses
system.l2.ReadSharedReq_misses::total             155                       # number of ReadSharedReq misses
system.l2.ReadSharedReq_miss_latency::.cpu.data     16038500                       # number of ReadSharedReq miss cycles
system.l2.ReadSharedReq_miss_latency::total     16038500                       # number of ReadSharedReq miss cycles
system.l2.ReadSharedReq_accesses::.cpu.data          198                       # number of ReadSharedReq accesses(hits+misses)
system.l2.ReadSharedReq_accesses::total           198                       # number of ReadSharedReq accesses(hits+misses)
system.l2.ReadSharedReq_miss_rate::.cpu.data     0.782828                       # miss rate for ReadSharedReq accesses
system.l2.ReadSharedReq_miss_rate::total     0.782828                       # miss rate for ReadSharedReq accesses
system.l2.ReadSharedReq_avg_miss_latency::.cpu.data 103474.193548                       # average ReadSharedReq miss latency
system.l2.ReadSharedReq_avg_miss_latency::total 103474.193548                       # average ReadSharedReq miss latency
system.l2.ReadSharedReq_mshr_hits::.cpu.data            8                       # number of ReadSharedReq MSHR hits
system.l2.ReadSharedReq_mshr_hits::total            8                       # number of ReadSharedReq MSHR hits
system.l2.ReadSharedReq_mshr_misses::.cpu.data          147                       # number of ReadSharedReq MSHR misses
system.l2.ReadSharedReq_mshr_misses::total          147                       # number of ReadSharedReq MSHR misses
system.l2.ReadSharedReq_mshr_miss_latency::.cpu.data     13899500                       # number of ReadSharedReq MSHR miss cycles
system.l2.ReadSharedReq_mshr_miss_latency::total     13899500                       # number of ReadSharedReq MSHR miss cycles
system.l2.ReadSharedReq_mshr_miss_rate::.cpu.data     0.742424                       # mshr miss rate for ReadSharedReq accesses
system.l2.ReadSharedReq_mshr_miss_rate::total     0.742424                       # mshr miss rate for ReadSharedReq accesses
system.l2.ReadSharedReq_avg_mshr_miss_latency::.cpu.data 94554.421769                       # average ReadSharedReq mshr miss latency
system.l2.ReadSharedReq_avg_mshr_miss_latency::total 94554.421769                       # average ReadSharedReq mshr miss latency
system.l2.power_state.pwrStateResidencyTicks::UNDEFINED 244364636500                       # Cumulative time (in ticks) in various power states
system.l2.tags.tagsinuse                  8083.909215                       # Cycle average of tags in use
system.l2.tags.total_refs                     2632444                       # Total number of references to valid blocks.
system.l2.tags.sampled_refs                   1316364                       # Sample count of references to valid blocks.
system.l2.tags.avg_refs                      1.999784                       # Average number of references to valid blocks.
system.l2.tags.warmup_cycle                     91000                       # Cycle when the warmup percentage was hit.
system.l2.tags.occ_blocks::.writebacks       0.397632                       # Average occupied blocks per requestor
system.l2.tags.occ_blocks::.cpu.inst         3.521737                       # Average occupied blocks per requestor
system.l2.tags.occ_blocks::.cpu.data      8079.989846                       # Average occupied blocks per requestor
system.l2.tags.occ_percent::.writebacks      0.000049                       # Average percentage of cache occupancy
system.l2.tags.occ_percent::.cpu.inst        0.000430                       # Average percentage of cache occupancy
system.l2.tags.occ_percent::.cpu.data        0.986327                       # Average percentage of cache occupancy
system.l2.tags.occ_percent::total            0.986805                       # Average percentage of cache occupancy
system.l2.tags.occ_task_id_blocks::1024          8192                       # Occupied blocks per task id
system.l2.tags.age_task_id_blocks_1024::0           56                       # Occupied blocks per task id
system.l2.tags.age_task_id_blocks_1024::1          484                       # Occupied blocks per task id
system.l2.tags.age_task_id_blocks_1024::2         4910                       # Occupied blocks per task id
system.l2.tags.age_task_id_blocks_1024::3         2742                       # Occupied blocks per task id
system.l2.tags.occ_task_id_percent::1024            1                       # Percentage of cache occupancy per task id
system.l2.tags.tag_accesses                  22375988                       # Number of tag accesses
system.l2.tags.data_accesses                 22375988                       # Number of data accesses
system.l2.tags.power_state.pwrStateResidencyTicks::UNDEFINED 244364636500                       # Cumulative time (in ticks) in various power states
system.cpu_voltage_domain.voltage                   1                       # Voltage in Volts
system.mem_ctrls.avgPriority_.writebacks::samples   5230812.00                       # Average QoS priority value for accepted requests
system.mem_ctrls.avgPriority_.cpu.inst::samples      1092.00                       # Average QoS priority value for accepted requests
system.mem_ctrls.avgPriority_.cpu.data::samples   5264088.00                       # Average QoS priority value for accepted requests
system.mem_ctrls.priorityMinLatency      0.000000017492                       # per QoS priority minimum request to response latency (s)
system.mem_ctrls.priorityMaxLatency      0.000245802820                       # per QoS priority maximum request to response latency (s)
system.mem_ctrls.numReadWriteTurnArounds       266547                       # Number of turnarounds from READ to WRITE
system.mem_ctrls.numWriteReadTurnArounds       266547                       # Number of turnarounds from WRITE to READ
system.mem_ctrls.numStayReadState             7899765                       # Number of times bus staying in READ state
system.mem_ctrls.numStayWriteState            4966597                       # Number of times bus staying in WRITE state
system.mem_ctrls.readReqs                     1316295                       # Number of read requests accepted
system.mem_ctrls.writeReqs                    1307703                       # Number of write requests accepted
system.mem_ctrls.readBursts                   5265180                       # Number of controller read bursts, including those serviced by the write queue
system.mem_ctrls.writeBursts                  5230812                       # Number of controller write bursts, including those merged in the write queue
system.mem_ctrls.servicedByWrQ                      0                       # Number of controller read bursts serviced by the write queue
system.mem_ctrls.mergedWrBursts                     0                       # Number of controller write bursts merged with an existing one
system.mem_ctrls.neitherReadNorWriteReqs            0                       # Number of requests that are neither read nor write
system.mem_ctrls.avgRdQLen                       4.04                       # Average read queue length when enqueuing
system.mem_ctrls.avgWrQLen                      58.69                       # Average write queue length when enqueuing
system.mem_ctrls.numRdRetry                         0                       # Number of times read queue was full causing retry
system.mem_ctrls.numWrRetry                         0                       # Number of times write queue was full causing retry
system.mem_ctrls.readPktSize::0                     0                       # Read request sizes (log2)
system.mem_ctrls.readPktSize::1                     0                       # Read request sizes (log2)
system.mem_ctrls.readPktSize::2                     0                       # Read request sizes (log2)
system.mem_ctrls.readPktSize::3                     0                       # Read request sizes (log2)
system.mem_ctrls.readPktSize::4                     0                       # Read request sizes (log2)
system.mem_ctrls.readPktSize::5                     0                       # Read request sizes (log2)
system.mem_ctrls.readPktSize::6               5265180                       # Read request sizes (log2)
system.mem_ctrls.readPktSize::7                     0                       # Read request sizes (log2)
system.mem_ctrls.readPktSize::8                     0                       # Read request sizes (log2)
system.mem_ctrls.writePktSize::0                    0                       # Write request sizes (log2)
system.mem_ctrls.writePktSize::1                    0                       # Write request sizes (log2)
system.mem_ctrls.writePktSize::2                    0                       # Write request sizes (log2)
system.mem_ctrls.writePktSize::3                    0                       # Write request sizes (log2)
system.mem_ctrls.writePktSize::4                    0                       # Write request sizes (log2)
system.mem_ctrls.writePktSize::5                    0                       # Write request sizes (log2)
system.mem_ctrls.writePktSize::6              5230812                       # Write request sizes (log2)
system.mem_ctrls.writePktSize::7                    0                       # Write request sizes (log2)
system.mem_ctrls.writePktSize::8                    0                       # Write request sizes (log2)
system.mem_ctrls.rdQLenPdf::0                 1315989                       # What read queue length does an incoming req see
system.mem_ctrls.rdQLenPdf::1                 1315990                       # What read queue length does an incoming req see
system.mem_ctrls.rdQLenPdf::2                 1315991                       # What read queue length does an incoming req see
system.mem_ctrls.rdQLenPdf::3                 1315997                       # What read queue length does an incoming req see
system.mem_ctrls.rdQLenPdf::4                     300                       # What read queue length does an incoming req see
system.mem_ctrls.rdQLenPdf::5                     299                       # What read queue length does an incoming req see
system.mem_ctrls.rdQLenPdf::6                     299                       # What read queue length does an incoming req see
system.mem_ctrls.rdQLenPdf::7                     293                       # What read queue length does an incoming req see
system.mem_ctrls.rdQLenPdf::8                       6                       # What read queue length does an incoming req see
system.mem_ctrls.rdQLenPdf::9                       6                       # What read queue length does an incoming req see
system.mem_ctrls.rdQLenPdf::10                      5                       # What read queue length does an incoming req see
system.mem_ctrls.rdQLenPdf::11                      5                       # What read queue length does an incoming req see
system.mem_ctrls.rdQLenPdf::12                      0                       # What read queue length does an incoming req see
system.mem_ctrls.rdQLenPdf::13                      0                       # What read queue length does an incoming req see
system.mem_ctrls.rdQLenPdf::14                      0                       # What read queue length does an incoming req see
system.mem_ctrls.rdQLenPdf::15                      0                       # What read queue length does an incoming req see
system.mem_ctrls.rdQLenPdf::16                      0                       # What read queue length does an incoming req see
system.mem_ctrls.rdQLenPdf::17                      0                       # What read queue length does an incoming req see
system.mem_ctrls.rdQLenPdf::18                      0                       # What read queue length does an incoming req see
system.mem_ctrls.rdQLenPdf::19                      0                       # What read queue length does an incoming req see
system.mem_ctrls.rdQLenPdf::20                      0                       # What read queue length does an incoming req see
system.mem_ctrls.rdQLenPdf::21                      0                       # What read queue length does an incoming req see
system.mem_ctrls.rdQLenPdf::22                      0                       # What read queue length does an incoming req see
system.mem_ctrls.rdQLenPdf::23                      0                       # What read queue length does an incoming req see
system.mem_ctrls.rdQLenPdf::24                      0                       # What read queue length does an incoming req see
system.mem_ctrls.rdQLenPdf::25                      0                       # What read queue length does an incoming req see
system.mem_ctrls.rdQLenPdf::26                      0                       # What read queue length does an incoming req see
system.mem_ctrls.rdQLenPdf::27                      0                       # What read queue length does an incoming req see
system.mem_ctrls.rdQLenPdf::28                      0                       # What read queue length does an incoming req see
system.mem_ctrls.rdQLenPdf::29                      0                       # What read queue length does an incoming req see
system.mem_ctrls.rdQLenPdf::30                      0                       # What read queue length does an incoming req see
system.mem_ctrls.rdQLenPdf::31                      0                       # What read queue length does an incoming req see
system.mem_ctrls.rdQLenPdf::32                      0                       # What read queue length does an incoming req see
system.mem_ctrls.rdQLenPdf::33                      0                       # What read queue length does an incoming req see
system.mem_ctrls.rdQLenPdf::34                      0                       # What read queue length does an incoming req see
system.mem_ctrls.rdQLenPdf::35                      0                       # What read queue length does an incoming req see
system.mem_ctrls.rdQLenPdf::36                      0                       # What read queue length does an incoming req see
system.mem_ctrls.rdQLenPdf::37                      0                       # What read queue length does an incoming req see
system.mem_ctrls.rdQLenPdf::38                      0                       # What read queue length does an incoming req see
system.mem_ctrls.rdQLenPdf::39                      0                       # What read queue length does an incoming req see
system.mem_ctrls.rdQLenPdf::40                      0                       # What read queue length does an incoming req see
system.mem_ctrls.rdQLenPdf::41                      0                       # What read queue length does an incoming req see
system.mem_ctrls.rdQLenPdf::42                      0                       # What read queue length does an incoming req see
system.mem_ctrls.rdQLenPdf::43                      0                       # What read queue length does an incoming req see
system.mem_ctrls.rdQLenPdf::44                      0                       # What read queue length does an incoming req see
system.mem_ctrls.rdQLenPdf::45                      0                       # What read queue length does an incoming req see
system.mem_ctrls.rdQLenPdf::46                      0                       # What read queue length does an incoming req see
system.mem_ctrls.rdQLenPdf::47                      0                       # What read queue length does an incoming req see
system.mem_ctrls.rdQLenPdf::48                      0                       # What read queue length does an incoming req see
system.mem_ctrls.rdQLenPdf::49                      0                       # What read queue length does an incoming req see
system.mem_ctrls.rdQLenPdf::50                      0                       # What read queue length does an incoming req see
system.mem_ctrls.rdQLenPdf::51                      0                       # What read queue length does an incoming req see
system.mem_ctrls.rdQLenPdf::52                      0                       # What read queue length does an incoming req see
system.mem_ctrls.rdQLenPdf::53                      0                       # What read queue length does an incoming req see
system.mem_ctrls.rdQLenPdf::54                      0                       # What read queue length does an incoming req see
system.mem_ctrls.rdQLenPdf::55                      0                       # What read queue length does an incoming req see
system.mem_ctrls.rdQLenPdf::56                      0                       # What read queue length does an incoming req see
system.mem_ctrls.rdQLenPdf::57                      0                       # What read queue length does an incoming req see
system.mem_ctrls.rdQLenPdf::58                      0                       # What read queue length does an incoming req see
system.mem_ctrls.rdQLenPdf::59                      0                       # What read queue length does an incoming req see
system.mem_ctrls.rdQLenPdf::60                      0                       # What read queue length does an incoming req see
system.mem_ctrls.rdQLenPdf::61                      0                       # What read queue length does an incoming req see
system.mem_ctrls.rdQLenPdf::62                      0                       # What read queue length does an incoming req see
system.mem_ctrls.rdQLenPdf::63                      0                       # What read queue length does an incoming req see
system.mem_ctrls.wrQLenPdf::0                       1                       # What write queue length does an incoming req see
system.mem_ctrls.wrQLenPdf::1                       1                       # What write queue length does an incoming req see
system.mem_ctrls.wrQLenPdf::2                       1                       # What write queue length does an incoming req see
system.mem_ctrls.wrQLenPdf::3                       1                       # What write queue length does an incoming req see
system.mem_ctrls.wrQLenPdf::4                       1                       # What write queue length does an incoming req see
system.mem_ctrls.wrQLenPdf::5                       1                       # What write queue length does an incoming req see
system.mem_ctrls.wrQLenPdf::6                       1                       # What write queue length does an incoming req see
system.mem_ctrls.wrQLenPdf::7                       1                       # What write queue length does an incoming req see
system.mem_ctrls.wrQLenPdf::8                       1                       # What write queue length does an incoming req see
system.mem_ctrls.wrQLenPdf::9                       1                       # What write queue length does an incoming req see
system.mem_ctrls.wrQLenPdf::10                      1                       # What write queue length does an incoming req see
system.mem_ctrls.wrQLenPdf::11                      1                       # What write queue length does an incoming req see
system.mem_ctrls.wrQLenPdf::12                      1                       # What write queue length does an incoming req see
system.mem_ctrls.wrQLenPdf::13                      1                       # What write queue length does an incoming req see
system.mem_ctrls.wrQLenPdf::14                      1                       # What write queue length does an incoming req see
system.mem_ctrls.wrQLenPdf::15                      1                       # What write queue length does an incoming req see
system.mem_ctrls.wrQLenPdf::16                      1                       # What write queue length does an incoming req see
system.mem_ctrls.wrQLenPdf::17                      1                       # What write queue length does an incoming req see
system.mem_ctrls.wrQLenPdf::18                      1                       # What write queue length does an incoming req see
system.mem_ctrls.wrQLenPdf::19                      1                       # What write queue length does an incoming req see
system.mem_ctrls.wrQLenPdf::20                      1                       # What write queue length does an incoming req see
system.mem_ctrls.wrQLenPdf::21                      1                       # What write queue length does an incoming req see
system.mem_ctrls.wrQLenPdf::22                      1                       # What write queue length does an incoming req see
system.mem_ctrls.wrQLenPdf::23                      1                       # What write queue length does an incoming req see
system.mem_ctrls.wrQLenPdf::24                      1                       # What write queue length does an incoming req see
system.mem_ctrls.wrQLenPdf::25                      1                       # What write queue length does an incoming req see
system.mem_ctrls.wrQLenPdf::26                      1                       # What write queue length does an incoming req see
system.mem_ctrls.wrQLenPdf::27                      1                       # What write queue length does an incoming req see
system.mem_ctrls.wrQLenPdf::28                      1                       # What write queue length does an incoming req see
system.mem_ctrls.wrQLenPdf::29                      1                       # What write queue length does an incoming req see
system.mem_ctrls.wrQLenPdf::30                      1                       # What write queue length does an incoming req see
system.mem_ctrls.wrQLenPdf::31                      1                       # What write queue length does an incoming req see
system.mem_ctrls.wrQLenPdf::32                      1                       # What write queue length does an incoming req see
system.mem_ctrls.wrQLenPdf::33                      1                       # What write queue length does an incoming req see
system.mem_ctrls.wrQLenPdf::34                      1                       # What write queue length does an incoming req see
system.mem_ctrls.wrQLenPdf::35                      1                       # What write queue length does an incoming req see
system.mem_ctrls.wrQLenPdf::36                      1                       # What write queue length does an incoming req see
system.mem_ctrls.wrQLenPdf::37                      1                       # What write queue length does an incoming req see
system.mem_ctrls.wrQLenPdf::38                      1                       # What write queue length does an incoming req see
system.mem_ctrls.wrQLenPdf::39                      1                       # What write queue length does an incoming req see
system.mem_ctrls.wrQLenPdf::40                      1                       # What write queue length does an incoming req see
system.mem_ctrls.wrQLenPdf::41                      1                       # What write queue length does an incoming req see
system.mem_ctrls.wrQLenPdf::42                      1                       # What write queue length does an incoming req see
system.mem_ctrls.wrQLenPdf::43                      1                       # What write queue length does an incoming req see
system.mem_ctrls.wrQLenPdf::44                      1                       # What write queue length does an incoming req see
system.mem_ctrls.wrQLenPdf::45                      1                       # What write queue length does an incoming req see
system.mem_ctrls.wrQLenPdf::46                      1                       # What write queue length does an incoming req see
system.mem_ctrls.wrQLenPdf::47                 237390                       # What write queue length does an incoming req see
system.mem_ctrls.wrQLenPdf::48                 241193                       # What write queue length does an incoming req see
system.mem_ctrls.wrQLenPdf::49                 265787                       # What write queue length does an incoming req see
system.mem_ctrls.wrQLenPdf::50                 265987                       # What write queue length does an incoming req see
system.mem_ctrls.wrQLenPdf::51                 266608                       # What write queue length does an incoming req see
system.mem_ctrls.wrQLenPdf::52                 266768                       # What write queue length does an incoming req see
system.mem_ctrls.wrQLenPdf::53                 266780                       # What write queue length does an incoming req see
system.mem_ctrls.wrQLenPdf::54                 266645                       # What write queue length does an incoming req see
system.mem_ctrls.wrQLenPdf::55                 266567                       # What write queue length does an incoming req see
system.mem_ctrls.wrQLenPdf::56                 266630                       # What write queue length does an incoming req see
system.mem_ctrls.wrQLenPdf::57                 266624                       # What write queue length does an incoming req see
system.mem_ctrls.wrQLenPdf::58                 266620                       # What write queue length does an incoming req see
system.mem_ctrls.wrQLenPdf::59                 266615                       # What write queue length does an incoming req see
system.mem_ctrls.wrQLenPdf::60                 266551                       # What write queue length does an incoming req see
system.mem_ctrls.wrQLenPdf::61                 266552                       # What write queue length does an incoming req see
system.mem_ctrls.wrQLenPdf::62                 266552                       # What write queue length does an incoming req see
system.mem_ctrls.wrQLenPdf::63                 266549                       # What write queue length does an incoming req see
system.mem_ctrls.wrQLenPdf::64                 266549                       # What write queue length does an incoming req see
system.mem_ctrls.wrQLenPdf::65                 241948                       # What write queue length does an incoming req see
system.mem_ctrls.wrQLenPdf::66                 241887                       # What write queue length does an incoming req see
system.mem_ctrls.wrQLenPdf::67                   3963                       # What write queue length does an incoming req see
system.mem_ctrls.wrQLenPdf::68                      0                       # What write queue length does an incoming req see
system.mem_ctrls.wrQLenPdf::69                      0                       # What write queue length does an incoming req see
system.mem_ctrls.wrQLenPdf::70                      0                       # What write queue length does an incoming req see
system.mem_ctrls.wrQLenPdf::71                      0                       # What write queue length does an incoming req see
system.mem_ctrls.wrQLenPdf::72                      0                       # What write queue length does an incoming req see
system.mem_ctrls.wrQLenPdf::73                      0                       # What write queue length does an incoming req see
system.mem_ctrls.wrQLenPdf::74                      0                       # What write queue length does an incoming req see
system.mem_ctrls.wrQLenPdf::75                      0                       # What write queue length does an incoming req see
system.mem_ctrls.wrQLenPdf::76                      0                       # What write queue length does an incoming req see
system.mem_ctrls.wrQLenPdf::77                      0                       # What write queue length does an incoming req see
system.mem_ctrls.wrQLenPdf::78                      0                       # What write queue length does an incoming req see
system.mem_ctrls.wrQLenPdf::79                      0                       # What write queue length does an incoming req see
system.mem_ctrls.wrQLenPdf::80                      0                       # What write queue length does an incoming req see
system.mem_ctrls.wrQLenPdf::81                      0                       # What write queue length does an incoming req see
system.mem_ctrls.wrQLenPdf::82                      0                       # What write queue length does an incoming req see
system.mem_ctrls.wrQLenPdf::83                      0                       # What write queue length does an incoming req see
system.mem_ctrls.wrQLenPdf::84                      0                       # What write queue length does an incoming req see
system.mem_ctrls.wrQLenPdf::85                      0                       # What write queue length does an incoming req see
system.mem_ctrls.wrQLenPdf::86                      0                       # What write queue length does an incoming req see
system.mem_ctrls.wrQLenPdf::87                      0                       # What write queue length does an incoming req see
system.mem_ctrls.wrQLenPdf::88                      0                       # What write queue length does an incoming req see
system.mem_ctrls.wrQLenPdf::89                      0                       # What write queue length does an incoming req see
system.mem_ctrls.wrQLenPdf::90                      0                       # What write queue length does an incoming req see
system.mem_ctrls.wrQLenPdf::91                      0                       # What write queue length does an incoming req see
system.mem_ctrls.wrQLenPdf::92                      0                       # What write queue length does an incoming req see
system.mem_ctrls.wrQLenPdf::93                      0                       # What write queue length does an incoming req see
system.mem_ctrls.wrQLenPdf::94                      0                       # What write queue length does an incoming req see
system.mem_ctrls.wrQLenPdf::95                      0                       # What write queue length does an incoming req see
system.mem_ctrls.wrQLenPdf::96                      0                       # What write queue length does an incoming req see
system.mem_ctrls.wrQLenPdf::97                      0                       # What write queue length does an incoming req see
system.mem_ctrls.wrQLenPdf::98                      0                       # What write queue length does an incoming req see
system.mem_ctrls.wrQLenPdf::99                      0                       # What write queue length does an incoming req see
system.mem_ctrls.wrQLenPdf::100                     0                       # What write queue length does an incoming req see
system.mem_ctrls.wrQLenPdf::101                     0                       # What write queue length does an incoming req see
system.mem_ctrls.wrQLenPdf::102                     0                       # What write queue length does an incoming req see
system.mem_ctrls.wrQLenPdf::103                     0                       # What write queue length does an incoming req see
system.mem_ctrls.wrQLenPdf::104                     0                       # What write queue length does an incoming req see
system.mem_ctrls.wrQLenPdf::105                     0                       # What write queue length does an incoming req see
system.mem_ctrls.wrQLenPdf::106                     0                       # What write queue length does an incoming req see
system.mem_ctrls.wrQLenPdf::107                     0                       # What write queue length does an incoming req see
system.mem_ctrls.wrQLenPdf::108                     0                       # What write queue length does an incoming req see
system.mem_ctrls.wrQLenPdf::109                     0                       # What write queue length does an incoming req see
system.mem_ctrls.wrQLenPdf::110                     0                       # What write queue length does an incoming req see
system.mem_ctrls.wrQLenPdf::111                     0                       # What write queue length does an incoming req see
system.mem_ctrls.wrQLenPdf::112                     0                       # What write queue length does an incoming req see
system.mem_ctrls.wrQLenPdf::113                     0                       # What write queue length does an incoming req see
system.mem_ctrls.wrQLenPdf::114                     0                       # What write queue length does an incoming req see
system.mem_ctrls.wrQLenPdf::115                     0                       # What write queue length does an incoming req see
system.mem_ctrls.wrQLenPdf::116                     0                       # What write queue length does an incoming req see
system.mem_ctrls.wrQLenPdf::117                     0                       # What write queue length does an incoming req see
system.mem_ctrls.wrQLenPdf::118                     0                       # What write queue length does an incoming req see
system.mem_ctrls.wrQLenPdf::119                     0                       # What write queue length does an incoming req see
system.mem_ctrls.wrQLenPdf::120                     0                       # What write queue length does an incoming req see
system.mem_ctrls.wrQLenPdf::121                     0                       # What write queue length does an incoming req see
system.mem_ctrls.wrQLenPdf::122                     0                       # What write queue length does an incoming req see
system.mem_ctrls.wrQLenPdf::123                     0                       # What write queue length does an incoming req see
system.mem_ctrls.wrQLenPdf::124                     0                       # What write queue length does an incoming req see
system.mem_ctrls.wrQLenPdf::125                     0                       # What write queue length does an incoming req see
system.mem_ctrls.wrQLenPdf::126                     0                       # What write queue length does an incoming req see
system.mem_ctrls.wrQLenPdf::127                     0                       # What write queue length does an incoming req see
system.mem_ctrls.rdPerTurnAround::samples       266547                       # Reads before turning the bus around for writes
system.mem_ctrls.rdPerTurnAround::mean      19.753229                       # Reads before turning the bus around for writes
system.mem_ctrls.rdPerTurnAround::gmean     19.576088                       # Reads before turning the bus around for writes
system.mem_ctrls.rdPerTurnAround::stdev     58.111435                       # Reads before turning the bus around for writes
system.mem_ctrls.rdPerTurnAround::0-511        266544    100.00%    100.00% # Reads before turning the bus around for writes
system.mem_ctrls.rdPerTurnAround::512-1023            1      0.00%    100.00% # Reads before turning the bus around for writes
system.mem_ctrls.rdPerTurnAround::1024-1535            1      0.00%    100.00% # Reads before turning the bus around for writes
system.mem_ctrls.rdPerTurnAround::29696-30207            1      0.00%    100.00% # Reads before turning the bus around for writes
system.mem_ctrls.rdPerTurnAround::total        266547                       # Reads before turning the bus around for writes
system.mem_ctrls.wrPerTurnAround::samples       266547                       # Writes before turning the bus around for reads
system.mem_ctrls.wrPerTurnAround::mean      19.624115                       # Writes before turning the bus around for reads
system.mem_ctrls.wrPerTurnAround::gmean     19.605794                       # Writes before turning the bus around for reads
system.mem_ctrls.wrPerTurnAround::stdev      0.830423                       # Writes before turning the bus around for reads
system.mem_ctrls.wrPerTurnAround::16              951      0.36%      0.36% # Writes before turning the bus around for reads
system.mem_ctrls.wrPerTurnAround::17               36      0.01%      0.37% # Writes before turning the bus around for reads
system.mem_ctrls.wrPerTurnAround::18            48427     18.17%     18.54% # Writes before turning the bus around for reads
system.mem_ctrls.wrPerTurnAround::19             4050      1.52%     20.06% # Writes before turning the bus around for reads
system.mem_ctrls.wrPerTurnAround::20           209264     78.51%     98.57% # Writes before turning the bus around for reads
system.mem_ctrls.wrPerTurnAround::21             3576      1.34%     99.91% # Writes before turning the bus around for reads
system.mem_ctrls.wrPerTurnAround::23                7      0.00%     99.91% # Writes before turning the bus around for reads
system.mem_ctrls.wrPerTurnAround::24              153      0.06%     99.97% # Writes before turning the bus around for reads
system.mem_ctrls.wrPerTurnAround::25               82      0.03%    100.00% # Writes before turning the bus around for reads
system.mem_ctrls.wrPerTurnAround::26                1      0.00%    100.00% # Writes before turning the bus around for reads
system.mem_ctrls.wrPerTurnAround::total        266547                       # Writes before turning the bus around for reads
system.mem_ctrls.bytesReadWrQ                       0                       # Total number of bytes read from write queue
system.mem_ctrls.bytesReadSys               336971520                       # Total read bytes from the system interface side
system.mem_ctrls.bytesWrittenSys            334771968                       # Total written bytes from the system interface side
system.mem_ctrls.avgRdBWSys                   1378.97                       # Average system read bandwidth in MiByte/s
system.mem_ctrls.avgWrBWSys                   1369.97                       # Average system write bandwidth in MiByte/s
system.mem_ctrls.totGap                  244364587000                       # Total gap between requests
system.mem_ctrls.avgGap                      93126.82                       # Average gap between requests
system.mem_ctrls.requestorReadBytes::.cpu.inst        69888                       # Per-requestor bytes read from memory
system.mem_ctrls.requestorReadBytes::.cpu.data    336901632                       # Per-requestor bytes read from memory
system.mem_ctrls.requestorWriteBytes::.writebacks    334767936                       # Per-requestor bytes write to memory
system.mem_ctrls.requestorReadRate::.cpu.inst 285998.829458287801                       # Per-requestor bytes read from memory rate (Bytes/sec)
system.mem_ctrls.requestorReadRate::.cpu.data 1378684071.580054521561                       # Per-requestor bytes read from memory rate (Bytes/sec)
system.mem_ctrls.requestorWriteRate::.writebacks 1369952464.459807395935                       # Per-requestor bytes write to memory rate (Bytes/sec)
system.mem_ctrls.requestorReadAccesses::.cpu.inst         1092                       # Per-requestor read serviced memory accesses
system.mem_ctrls.requestorReadAccesses::.cpu.data      5264088                       # Per-requestor read serviced memory accesses
system.mem_ctrls.requestorWriteAccesses::.writebacks      5230812                       # Per-requestor write serviced memory accesses
system.mem_ctrls.requestorReadTotalLat::.cpu.inst     45289804                       # Per-requestor read total memory access latency
system.mem_ctrls.requestorReadTotalLat::.cpu.data 253917066736                       # Per-requestor read total memory access latency
system.mem_ctrls.requestorWriteTotalLat::.writebacks 13504195566854                       # Per-requestor write total memory access latency
system.mem_ctrls.requestorReadAvgLat::.cpu.inst     41474.18                       # Per-requestor read average memory access latency
system.mem_ctrls.requestorReadAvgLat::.cpu.data     48235.72                       # Per-requestor read average memory access latency
system.mem_ctrls.requestorWriteAvgLat::.writebacks   2581663.34                       # Per-requestor write average memory access latency
system.mem_ctrls.dram.bytes_read::.cpu.inst        69888                       # Number of bytes read from this memory
system.mem_ctrls.dram.bytes_read::.cpu.data    336901632                       # Number of bytes read from this memory
system.mem_ctrls.dram.bytes_read::total     336971520                       # Number of bytes read from this memory
system.mem_ctrls.dram.bytes_inst_read::.cpu.inst        69888                       # Number of instructions bytes read from this memory
system.mem_ctrls.dram.bytes_inst_read::total        69888                       # Number of instructions bytes read from this memory
system.mem_ctrls.dram.bytes_written::.writebacks    334771968                       # Number of bytes written to this memory
system.mem_ctrls.dram.bytes_written::total    334771968                       # Number of bytes written to this memory
system.mem_ctrls.dram.num_reads::.cpu.inst          273                       # Number of read requests responded to by this memory
system.mem_ctrls.dram.num_reads::.cpu.data      1316022                       # Number of read requests responded to by this memory
system.mem_ctrls.dram.num_reads::total        1316295                       # Number of read requests responded to by this memory
system.mem_ctrls.dram.num_writes::.writebacks      1307703                       # Number of write requests responded to by this memory
system.mem_ctrls.dram.num_writes::total       1307703                       # Number of write requests responded to by this memory
system.mem_ctrls.dram.bw_read::.cpu.inst       285999                       # Total read bandwidth from this memory (bytes/s)
system.mem_ctrls.dram.bw_read::.cpu.data   1378684072                       # Total read bandwidth from this memory (bytes/s)
system.mem_ctrls.dram.bw_read::total       1378970070                       # Total read bandwidth from this memory (bytes/s)
system.mem_ctrls.dram.bw_inst_read::.cpu.inst       285999                       # Instruction read bandwidth from this memory (bytes/s)
system.mem_ctrls.dram.bw_inst_read::total       285999                       # Instruction read bandwidth from this memory (bytes/s)
system.mem_ctrls.dram.bw_write::.writebacks   1369968964                       # Write bandwidth from this memory (bytes/s)
system.mem_ctrls.dram.bw_write::total      1369968964                       # Write bandwidth from this memory (bytes/s)
system.mem_ctrls.dram.bw_total::.writebacks   1369968964                       # Total bandwidth to/from this memory (bytes/s)
system.mem_ctrls.dram.bw_total::.cpu.inst       285999                       # Total bandwidth to/from this memory (bytes/s)
system.mem_ctrls.dram.bw_total::.cpu.data   1378684072                       # Total bandwidth to/from this memory (bytes/s)
system.mem_ctrls.dram.bw_total::total      2748939035                       # Total bandwidth to/from this memory (bytes/s)
system.mem_ctrls.dram.readBursts              5265180                       # Number of DRAM read bursts
system.mem_ctrls.dram.writeBursts             5230749                       # Number of DRAM write bursts
system.mem_ctrls.dram.perBankRdBursts::0       164448                       # Per bank write bursts
system.mem_ctrls.dram.perBankRdBursts::1       164604                       # Per bank write bursts
system.mem_ctrls.dram.perBankRdBursts::2       164584                       # Per bank write bursts
system.mem_ctrls.dram.perBankRdBursts::3       164632                       # Per bank write bursts
system.mem_ctrls.dram.perBankRdBursts::4       164588                       # Per bank write bursts
system.mem_ctrls.dram.perBankRdBursts::5       164620                       # Per bank write bursts
system.mem_ctrls.dram.perBankRdBursts::6       164628                       # Per bank write bursts
system.mem_ctrls.dram.perBankRdBursts::7       164624                       # Per bank write bursts
system.mem_ctrls.dram.perBankRdBursts::8       164608                       # Per bank write bursts
system.mem_ctrls.dram.perBankRdBursts::9       164652                       # Per bank write bursts
system.mem_ctrls.dram.perBankRdBursts::10       164640                       # Per bank write bursts
system.mem_ctrls.dram.perBankRdBursts::11       164624                       # Per bank write bursts
system.mem_ctrls.dram.perBankRdBursts::12       164620                       # Per bank write bursts
system.mem_ctrls.dram.perBankRdBursts::13       164680                       # Per bank write bursts
system.mem_ctrls.dram.perBankRdBursts::14       164668                       # Per bank write bursts
system.mem_ctrls.dram.perBankRdBursts::15       164604                       # Per bank write bursts
system.mem_ctrls.dram.perBankRdBursts::16       164560                       # Per bank write bursts
system.mem_ctrls.dram.perBankRdBursts::17       164608                       # Per bank write bursts
system.mem_ctrls.dram.perBankRdBursts::18       164612                       # Per bank write bursts
system.mem_ctrls.dram.perBankRdBursts::19       164512                       # Per bank write bursts
system.mem_ctrls.dram.perBankRdBursts::20       164476                       # Per bank write bursts
system.mem_ctrls.dram.perBankRdBursts::21       164524                       # Per bank write bursts
system.mem_ctrls.dram.perBankRdBursts::22       164528                       # Per bank write bursts
system.mem_ctrls.dram.perBankRdBursts::23       164460                       # Per bank write bursts
system.mem_ctrls.dram.perBankRdBursts::24       164324                       # Per bank write bursts
system.mem_ctrls.dram.perBankRdBursts::25       164272                       # Per bank write bursts
system.mem_ctrls.dram.perBankRdBursts::26       164312                       # Per bank write bursts
system.mem_ctrls.dram.perBankRdBursts::27       164348                       # Per bank write bursts
system.mem_ctrls.dram.perBankRdBursts::28       164536                       # Per bank write bursts
system.mem_ctrls.dram.perBankRdBursts::29       164440                       # Per bank write bursts
system.mem_ctrls.dram.perBankRdBursts::30       164436                       # Per bank write bursts
system.mem_ctrls.dram.perBankRdBursts::31       164408                       # Per bank write bursts
system.mem_ctrls.dram.perBankWrBursts::0       163368                       # Per bank write bursts
system.mem_ctrls.dram.perBankWrBursts::1       163448                       # Per bank write bursts
system.mem_ctrls.dram.perBankWrBursts::2       163524                       # Per bank write bursts
system.mem_ctrls.dram.perBankWrBursts::3       163596                       # Per bank write bursts
system.mem_ctrls.dram.perBankWrBursts::4       163540                       # Per bank write bursts
system.mem_ctrls.dram.perBankWrBursts::5       163596                       # Per bank write bursts
system.mem_ctrls.dram.perBankWrBursts::6       163592                       # Per bank write bursts
system.mem_ctrls.dram.perBankWrBursts::7       163600                       # Per bank write bursts
system.mem_ctrls.dram.perBankWrBursts::8       163584                       # Per bank write bursts
system.mem_ctrls.dram.perBankWrBursts::9       163584                       # Per bank write bursts
system.mem_ctrls.dram.perBankWrBursts::10       163584                       # Per bank write bursts
system.mem_ctrls.dram.perBankWrBursts::11       163584                       # Per bank write bursts
system.mem_ctrls.dram.perBankWrBursts::12       163584                       # Per bank write bursts
system.mem_ctrls.dram.perBankWrBursts::13       163584                       # Per bank write bursts
system.mem_ctrls.dram.perBankWrBursts::14       163584                       # Per bank write bursts
[...]
system.cpu.dcache.ReadReq_hits::.cpu.data      2043834                       # number of ReadReq hits
system.cpu.dcache.ReadReq_hits::total         2043834                       # number of ReadReq hits
system.cpu.dcache.ReadReq_misses::.cpu.data          212                       # number of ReadReq misses
system.cpu.dcache.ReadReq_misses::total           212                       # number of ReadReq misses
system.cpu.dcache.ReadReq_miss_latency::.cpu.data     18081000                       # number of ReadReq miss cycles
system.cpu.dcache.ReadReq_miss_latency::total     18081000                       # number of ReadReq miss cycles
system.cpu.dcache.ReadReq_accesses::.cpu.data      2044046                       # number of ReadReq accesses(hits+misses)
system.cpu.dcache.ReadReq_accesses::total      2044046                       # number of ReadReq accesses(hits+misses)
system.cpu.dcache.ReadReq_miss_rate::.cpu.data     0.000104                       # miss rate for ReadReq accesses
system.cpu.dcache.ReadReq_miss_rate::total     0.000104                       # miss rate for ReadReq accesses
system.cpu.dcache.ReadReq_avg_miss_latency::.cpu.data 85287.735849                       # average ReadReq miss latency
system.cpu.dcache.ReadReq_avg_miss_latency::total 85287.735849                       # average ReadReq miss latency
system.cpu.dcache.ReadReq_mshr_hits::.cpu.data           22                       # number of ReadReq MSHR hits
system.cpu.dcache.ReadReq_mshr_hits::total           22                       # number of ReadReq MSHR hits
system.cpu.dcache.ReadReq_mshr_misses::.cpu.data          190                       # number of ReadReq MSHR misses
system.cpu.dcache.ReadReq_mshr_misses::total          190                       # number of ReadReq MSHR misses
system.cpu.dcache.ReadReq_mshr_miss_latency::.cpu.data     16142000                       # number of ReadReq MSHR miss cycles
system.cpu.dcache.ReadReq_mshr_miss_latency::total     16142000                       # number of ReadReq MSHR miss cycles
system.cpu.dcache.ReadReq_mshr_miss_rate::.cpu.data     0.000093                       # mshr miss rate for ReadReq accesses
system.cpu.dcache.ReadReq_mshr_miss_rate::total     0.000093                       # mshr miss rate for ReadReq accesses
system.cpu.dcache.ReadReq_avg_mshr_miss_latency::.cpu.data 84957.894737                       # average ReadReq mshr miss latency
system.cpu.dcache.ReadReq_avg_mshr_miss_latency::total 84957.894737                       # average ReadReq mshr miss latency
system.cpu.dcache.WriteReq_hits::.cpu.data     81705588                       # number of WriteReq hits
system.cpu.dcache.WriteReq_hits::total       81705588                       # number of WriteReq hits
system.cpu.dcache.WriteReq_misses::.cpu.data      2631006                       # number of WriteReq misses
system.cpu.dcache.WriteReq_misses::total      2631006                       # number of WriteReq misses
system.cpu.dcache.WriteReq_miss_latency::.cpu.data 292408692500                       # number of WriteReq miss cycles
system.cpu.dcache.WriteReq_miss_latency::total 292408692500                       # number of WriteReq miss cycles
system.cpu.dcache.WriteReq_accesses::.cpu.data     84336594                       # number of WriteReq accesses(hits+misses)
system.cpu.dcache.WriteReq_accesses::total     84336594                       # number of WriteReq accesses(hits+misses)
system.cpu.dcache.WriteReq_miss_rate::.cpu.data     0.031196                       # miss rate for WriteReq accesses
system.cpu.dcache.WriteReq_miss_rate::total     0.031196                       # miss rate for WriteReq accesses
system.cpu.dcache.WriteReq_avg_miss_latency::.cpu.data 111139.500442                       # average WriteReq miss latency
system.cpu.dcache.WriteReq_avg_miss_latency::total 111139.500442                       # average WriteReq miss latency
system.cpu.dcache.WriteReq_mshr_hits::.cpu.data      1315120                       # number of WriteReq MSHR hits
system.cpu.dcache.WriteReq_mshr_hits::total      1315120                       # number of WriteReq MSHR hits
system.cpu.dcache.WriteReq_mshr_misses::.cpu.data      1315886                       # number of WriteReq MSHR misses
system.cpu.dcache.WriteReq_mshr_misses::total      1315886                       # number of WriteReq MSHR misses
system.cpu.dcache.WriteReq_mshr_miss_latency::.cpu.data 142631951000                       # number of WriteReq MSHR miss cycles
system.cpu.dcache.WriteReq_mshr_miss_latency::total 142631951000                       # number of WriteReq MSHR miss cycles
system.cpu.dcache.WriteReq_mshr_miss_rate::.cpu.data     0.015603                       # mshr miss rate for WriteReq accesses
system.cpu.dcache.WriteReq_mshr_miss_rate::total     0.015603                       # mshr miss rate for WriteReq accesses
system.cpu.dcache.WriteReq_avg_mshr_miss_latency::.cpu.data 108392.331099                       # average WriteReq mshr miss latency
system.cpu.dcache.WriteReq_avg_mshr_miss_latency::total 108392.331099                       # average WriteReq mshr miss latency
system.cpu.dcache.SoftPFReq_hits::.cpu.data           55                       # number of SoftPFReq hits
system.cpu.dcache.SoftPFReq_hits::total            55                       # number of SoftPFReq hits
system.cpu.dcache.SoftPFReq_misses::.cpu.data           16                       # number of SoftPFReq misses
system.cpu.dcache.SoftPFReq_misses::total           16                       # number of SoftPFReq misses
system.cpu.dcache.SoftPFReq_accesses::.cpu.data           71                       # number of SoftPFReq accesses(hits+misses)
system.cpu.dcache.SoftPFReq_accesses::total           71                       # number of SoftPFReq accesses(hits+misses)
system.cpu.dcache.SoftPFReq_miss_rate::.cpu.data     0.225352                       # miss rate for SoftPFReq accesses
system.cpu.dcache.SoftPFReq_miss_rate::total     0.225352                       # miss rate for SoftPFReq accesses
system.cpu.dcache.SoftPFReq_mshr_misses::.cpu.data            8                       # number of SoftPFReq MSHR misses
system.cpu.dcache.SoftPFReq_mshr_misses::total            8                       # number of SoftPFReq MSHR misses
system.cpu.dcache.SoftPFReq_mshr_miss_latency::.cpu.data       798000                       # number of SoftPFReq MSHR miss cycles
system.cpu.dcache.SoftPFReq_mshr_miss_latency::total       798000                       # number of SoftPFReq MSHR miss cycles
system.cpu.dcache.SoftPFReq_mshr_miss_rate::.cpu.data     0.112676                       # mshr miss rate for SoftPFReq accesses
system.cpu.dcache.SoftPFReq_mshr_miss_rate::total     0.112676                       # mshr miss rate for SoftPFReq accesses
system.cpu.dcache.SoftPFReq_avg_mshr_miss_latency::.cpu.data        99750                       # average SoftPFReq mshr miss latency
system.cpu.dcache.SoftPFReq_avg_mshr_miss_latency::total        99750                       # average SoftPFReq mshr miss latency
system.cpu.dcache.LoadLockedReq_hits::.cpu.data           34                       # number of LoadLockedReq hits
system.cpu.dcache.LoadLockedReq_hits::total           34                       # number of LoadLockedReq hits
system.cpu.dcache.LoadLockedReq_accesses::.cpu.data           34                       # number of LoadLockedReq accesses(hits+misses)
system.cpu.dcache.LoadLockedReq_accesses::total           34                       # number of LoadLockedReq accesses(hits+misses)
system.cpu.dcache.StoreCondReq_hits::.cpu.data           34                       # number of StoreCondReq hits
system.cpu.dcache.StoreCondReq_hits::total           34                       # number of StoreCondReq hits
system.cpu.dcache.StoreCondReq_accesses::.cpu.data           34                       # number of StoreCondReq accesses(hits+misses)
system.cpu.dcache.StoreCondReq_accesses::total           34                       # number of StoreCondReq accesses(hits+misses)
system.cpu.dcache.power_state.pwrStateResidencyTicks::UNDEFINED 244364636500                       # Cumulative time (in ticks) in various power states
system.cpu.dcache.tags.tagsinuse           255.919046                       # Cycle average of tags in use
system.cpu.dcache.tags.total_refs            85065629                       # Total number of references to valid blocks.
system.cpu.dcache.tags.sampled_refs           1316084                       # Sample count of references to valid blocks.
system.cpu.dcache.tags.avg_refs             64.635410                       # Average number of references to valid blocks.
system.cpu.dcache.tags.warmup_cycle            208500                       # Cycle when the warmup percentage was hit.
system.cpu.dcache.tags.occ_blocks::.cpu.data   255.919046                       # Average occupied blocks per requestor
system.cpu.dcache.tags.occ_percent::.cpu.data     0.999684                       # Average percentage of cache occupancy
system.cpu.dcache.tags.occ_percent::total     0.999684                       # Average percentage of cache occupancy
system.cpu.dcache.tags.occ_task_id_blocks::1024          256                       # Occupied blocks per task id
system.cpu.dcache.tags.age_task_id_blocks_1024::0           56                       # Occupied blocks per task id
system.cpu.dcache.tags.age_task_id_blocks_1024::1          200                       # Occupied blocks per task id
system.cpu.dcache.tags.occ_task_id_percent::1024            1                       # Percentage of cache occupancy per task id
system.cpu.dcache.tags.tag_accesses         174077642                       # Number of tag accesses
system.cpu.dcache.tags.data_accesses        174077642                       # Number of data accesses
system.cpu.dcache.tags.power_state.pwrStateResidencyTicks::UNDEFINED 244364636500                       # Cumulative time (in ticks) in various power states
system.cpu.power_state.pwrStateResidencyTicks::ON 244364636500                       # Cumulative time (in ticks) in various power states
system.cpu.branchPred.lookups                10658289                       # Number of BP lookups
system.cpu.branchPred.condPredicted          10650042                       # Number of conditional branches predicted
system.cpu.branchPred.condIncorrect              1450                       # Number of conditional branches incorrect
system.cpu.branchPred.BTBLookups             10650204                       # Number of BTB lookups
system.cpu.branchPred.BTBHits                10648830                       # Number of BTB hits
system.cpu.branchPred.BTBHitPct             99.987099                       # BTB Hit Percentage
system.cpu.branchPred.RASUsed                    2723                       # Number of times the RAS was used to get a target.
system.cpu.branchPred.RASIncorrect                  1                       # Number of incorrect RAS predictions.
system.cpu.branchPred.indirectLookups             193                       # Number of indirect predictor lookups.
system.cpu.branchPred.indirectHits                 19                       # Number of indirect target hits.
system.cpu.branchPred.indirectMisses              174                       # Number of indirect misses.
system.cpu.branchPred.indirectMispredicted          101                       # Number of mispredicted indirect branches.
system.cpu.fetch2.intInstructions            45071190                       # Number of integer instructions successfully decoded
system.cpu.fetch2.fpInstructions                    0                       # Number of floating point instructions successfully decoded
system.cpu.fetch2.vecInstructions                   0                       # Number of SIMD instructions successfully decoded
system.cpu.fetch2.loadInstructions            2086439                       # Number of memory load instructions successfully decoded
system.cpu.fetch2.storeInstructions            169175                       # Number of memory store instructions successfully decoded
system.cpu.fetch2.amoInstructions                   0                       # Number of memory atomic instructions successfully decoded
system.cpu.itb.instHits                             0                       # ITB inst hits
system.cpu.itb.instMisses                           0                       # ITB inst misses
system.cpu.itb.readHits                             0                       # DTB read hits
system.cpu.itb.readMisses                           0                       # DTB read misses
system.cpu.itb.writeHits                            0                       # DTB write hits
system.cpu.itb.writeMisses                          0                       # DTB write misses
system.cpu.itb.inserts                              0                       # Number of times an entry is inserted into the TLB
system.cpu.itb.flushTlb                             0                       # Number of times complete TLB was flushed
system.cpu.itb.flushTlbMva                          0                       # Number of times TLB was flushed by MVA
system.cpu.itb.flushTlbMvaAsid                      0                       # Number of times TLB was flushed by MVA & ASID
system.cpu.itb.flushTlbAsid                         0                       # Number of times TLB was flushed by ASID
system.cpu.itb.flushedEntries                       0                       # Number of entries that have been flushed from TLB
system.cpu.itb.alignFaults                          0                       # Number of TLB faults due to alignment restrictions
system.cpu.itb.prefetchFaults                       0                       # Number of TLB faults due to prefetch
system.cpu.itb.domainFaults                         0                       # Number of TLB faults due to domain restrictions
system.cpu.itb.permsFaults                          0                       # Number of TLB faults due to permissions restrictions
system.cpu.itb.readAccesses                         0                       # DTB read accesses
system.cpu.itb.writeAccesses                        0                       # DTB write accesses
system.cpu.itb.instAccesses                         0                       # ITB inst accesses
system.cpu.itb.hits                                 0                       # Total TLB (inst and data) hits
system.cpu.itb.misses                               0                       # Total TLB (inst and data) misses
system.cpu.itb.accesses                             0                       # Total TLB (inst and data) accesses
system.cpu.itb.walker.walks                         0                       # Table walker walks requested
system.cpu.itb.walker.requestOrigin_Requested::Data            0                       # Table walker requests started/completed, data/inst
system.cpu.itb.walker.requestOrigin_Requested::Inst            0                       # Table walker requests started/completed, data/inst
system.cpu.itb.walker.requestOrigin_Requested::total            0                       # Table walker requests started/completed, data/inst
system.cpu.itb.walker.requestOrigin_Completed::Data            0                       # Table walker requests started/completed, data/inst
system.cpu.itb.walker.requestOrigin_Completed::Inst            0                       # Table walker requests started/completed, data/inst
system.cpu.itb.walker.requestOrigin_Completed::total            0                       # Table walker requests started/completed, data/inst
system.cpu.itb.walker.requestOrigin::total            0                       # Table walker requests started/completed, data/inst
system.cpu.itb.walker.power_state.pwrStateResidencyTicks::UNDEFINED 244364636500                       # Cumulative time (in ticks) in various power states
system.cpu.itb.stage2_mmu.stage2_tlb.instHits            0                       # ITB inst hits
system.cpu.itb.stage2_mmu.stage2_tlb.instMisses            0                       # ITB inst misses
system.cpu.itb.stage2_mmu.stage2_tlb.readHits            0                       # DTB read hits
system.cpu.itb.stage2_mmu.stage2_tlb.readMisses            0                       # DTB read misses
system.cpu.itb.stage2_mmu.stage2_tlb.writeHits            0                       # DTB write hits
system.cpu.itb.stage2_mmu.stage2_tlb.writeMisses            0                       # DTB write misses
system.cpu.itb.stage2_mmu.stage2_tlb.inserts            0                       # Number of times an entry is inserted into the TLB
system.cpu.itb.stage2_mmu.stage2_tlb.flushTlb            0                       # Number of times complete TLB was flushed
system.cpu.itb.stage2_mmu.stage2_tlb.flushTlbMva            0                       # Number of times TLB was flushed by MVA
system.cpu.itb.stage2_mmu.stage2_tlb.flushTlbMvaAsid            0                       # Number of times TLB was flushed by MVA & ASID
system.cpu.itb.stage2_mmu.stage2_tlb.flushTlbAsid            0                       # Number of times TLB was flushed by ASID
system.cpu.itb.stage2_mmu.stage2_tlb.flushedEntries            0                       # Number of entries that have been flushed from TLB
system.cpu.itb.stage2_mmu.stage2_tlb.alignFaults            0                       # Number of TLB faults due to alignment restrictions
system.cpu.itb.stage2_mmu.stage2_tlb.prefetchFaults            0                       # Number of TLB faults due to prefetch
system.cpu.itb.stage2_mmu.stage2_tlb.domainFaults            0                       # Number of TLB faults due to domain restrictions
system.cpu.itb.stage2_mmu.stage2_tlb.permsFaults            0                       # Number of TLB faults due to permissions restrictions
system.cpu.itb.stage2_mmu.stage2_tlb.readAccesses            0                       # DTB read accesses
system.cpu.itb.stage2_mmu.stage2_tlb.writeAccesses            0                       # DTB write accesses
system.cpu.itb.stage2_mmu.stage2_tlb.instAccesses            0                       # ITB inst accesses
system.cpu.itb.stage2_mmu.stage2_tlb.hits            0                       # Total TLB (inst and data) hits
system.cpu.itb.stage2_mmu.stage2_tlb.misses            0                       # Total TLB (inst and data) misses
system.cpu.itb.stage2_mmu.stage2_tlb.accesses            0                       # Total TLB (inst and data) accesses
system.cpu.itb.stage2_mmu.stage2_tlb.walker.walks            0                       # Table walker walks requested
system.cpu.itb.stage2_mmu.stage2_tlb.walker.requestOrigin_Requested::Data            0                       # Table walker requests started/completed, data/inst
system.cpu.itb.stage2_mmu.stage2_tlb.walker.requestOrigin_Requested::Inst            0                       # Table walker requests started/completed, data/inst
system.cpu.itb.stage2_mmu.stage2_tlb.walker.requestOrigin_Requested::total            0                       # Table walker requests started/completed, data/inst
system.cpu.itb.stage2_mmu.stage2_tlb.walker.requestOrigin_Completed::Data            0                       # Table walker requests started/completed, data/inst
system.cpu.itb.stage2_mmu.stage2_tlb.walker.requestOrigin_Completed::Inst            0                       # Table walker requests started/completed, data/inst
system.cpu.itb.stage2_mmu.stage2_tlb.walker.requestOrigin_Completed::total            0                       # Table walker requests started/completed, data/inst
system.cpu.itb.stage2_mmu.stage2_tlb.walker.requestOrigin::total            0                       # Table walker requests started/completed, data/inst
system.cpu.itb.stage2_mmu.stage2_tlb.walker.power_state.pwrStateResidencyTicks::UNDEFINED 244364636500                       # Cumulative time (in ticks) in various power states

---------- End Simulation Statistics   ----------
