
---------- Begin Simulation Statistics ----------
final_tick                                83105833500                       # Number of ticks from beginning of simulation (restored from checkpoints and never reset)
host_inst_rate                                 310949                       # Simulator instruction rate (inst/s)
host_mem_usage                                 680976                       # Number of bytes of host memory used
host_op_rate                                   311560                       # Simulator op (including micro ops) rate (op/s)
host_seconds                                   321.60                       # Real time elapsed on the host
host_tick_rate                              258416824                       # Simulator tick rate (ticks/s)
sim_freq                                 1000000000000                       # Frequency of simulated ticks
sim_insts                                   100000001                       # Number of instructions simulated
sim_ops                                     100196356                       # Number of ops (including micro ops) simulated
sim_seconds                                  0.083106                       # Number of seconds simulated
sim_ticks                                 83105833500                       # Number of ticks simulated
system.cpu.committedInsts                   100000001                       # Number of instructions committed
system.cpu.committedOps                     100196356                       # Number of ops (including micro ops) committed
system.cpu.cpi                               1.662117                       # CPI: cycles per instruction
system.cpu.discardedOps                        189409                       # Number of ops (including micro ops) which were discarded before commit
system.cpu.idleCycles                        33554624                       # Total number of cycles that the object has spent stopped
system.cpu.ipc                               0.601642                       # IPC: instructions per cycle
system.cpu.numCycles                        166211667                       # number of cpu cycles simulated
system.cpu.numFetchSuspends                         0                       # Number of times Execute suspended instruction fetching
system.cpu.numWorkItemsCompleted                    0                       # number of work items this cpu completed
system.cpu.numWorkItemsStarted                      0                       # number of work items this cpu started
system.cpu.op_class_0::No_OpClass                   0      0.00%      0.00% # Class of committed instruction
system.cpu.op_class_0::IntAlu                46526863     46.44%     46.44% # Class of committed instruction
system.cpu.op_class_0::IntMult                  20723      0.02%     46.46% # Class of committed instruction
system.cpu.op_class_0::IntDiv                       0      0.00%     46.46% # Class of committed instruction
system.cpu.op_class_0::FloatAdd                     0      0.00%     46.46% # Class of committed instruction
system.cpu.op_class_0::FloatCmp                     0      0.00%     46.46% # Class of committed instruction
system.cpu.op_class_0::FloatCvt                     0      0.00%     46.46% # Class of committed instruction
system.cpu.op_class_0::FloatMult                    0      0.00%     46.46% # Class of committed instruction
system.cpu.op_class_0::FloatMultAcc                 0      0.00%     46.46% # Class of committed instruction
system.cpu.op_class_0::FloatDiv                     0      0.00%     46.46% # Class of committed instruction
system.cpu.op_class_0::FloatMisc                    0      0.00%     46.46% # Class of committed instruction
system.cpu.op_class_0::FloatSqrt                    0      0.00%     46.46% # Class of committed instruction
system.cpu.op_class_0::SimdAdd                      0      0.00%     46.46% # Class of committed instruction
system.cpu.op_class_0::SimdAddAcc                   0      0.00%     46.46% # Class of committed instruction
system.cpu.op_class_0::SimdAlu                      0      0.00%     46.46% # Class of committed instruction
system.cpu.op_class_0::SimdCmp                      0      0.00%     46.46% # Class of committed instruction
system.cpu.op_class_0::SimdCvt                      0      0.00%     46.46% # Class of committed instruction
system.cpu.op_class_0::SimdMisc                     0      0.00%     46.46% # Class of committed instruction
system.cpu.op_class_0::SimdMult                     0      0.00%     46.46% # Class of committed instruction
system.cpu.op_class_0::SimdMultAcc                  0      0.00%     46.46% # Class of committed instruction
system.cpu.op_class_0::SimdShift                    0      0.00%     46.46% # Class of committed instruction
system.cpu.op_class_0::SimdShiftAcc                 0      0.00%     46.46% # Class of committed instruction
system.cpu.op_class_0::SimdDiv                      0      0.00%     46.46% # Class of committed instruction
system.cpu.op_class_0::SimdSqrt                     0      0.00%     46.46% # Class of committed instruction
system.cpu.op_class_0::SimdFloatAdd                 0      0.00%     46.46% # Class of committed instruction
system.cpu.op_class_0::SimdFloatAlu                 0      0.00%     46.46% # Class of committed instruction
system.cpu.op_class_0::SimdFloatCmp                 0      0.00%     46.46% # Class of committed instruction
system.cpu.op_class_0::SimdFloatCvt                 0      0.00%     46.46% # Class of committed instruction
system.cpu.op_class_0::SimdFloatDiv                 0      0.00%     46.46% # Class of committed instruction
system.cpu.op_class_0::SimdFloatMisc               18      0.00%     46.46% # Class of committed instruction
system.cpu.op_class_0::SimdFloatMult                0      0.00%     46.46% # Class of committed instruction
system.cpu.op_class_0::SimdFloatMultAcc             0      0.00%     46.46% # Class of committed instruction
system.cpu.op_class_0::SimdFloatSqrt                0      0.00%     46.46% # Class of committed instruction
system.cpu.op_class_0::SimdReduceAdd                0      0.00%     46.46% # Class of committed instruction
system.cpu.op_class_0::SimdReduceAlu                0      0.00%     46.46% # Class of committed instruction
system.cpu.op_class_0::SimdReduceCmp                0      0.00%     46.46% # Class of committed instruction
system.cpu.op_class_0::SimdFloatReduceAdd            0      0.00%     46.46% # Class of committed instruction
system.cpu.op_class_0::SimdFloatReduceCmp            0      0.00%     46.46% # Class of committed instruction
system.cpu.op_class_0::SimdAes                      0      0.00%     46.46% # Class of committed instruction
system.cpu.op_class_0::SimdAesMix                   0      0.00%     46.46% # Class of committed instruction
system.cpu.op_class_0::SimdSha1Hash                 0      0.00%     46.46% # Class of committed instruction
system.cpu.op_class_0::SimdSha1Hash2                0      0.00%     46.46% # Class of committed instruction
system.cpu.op_class_0::SimdSha256Hash               0      0.00%     46.46% # Class of committed instruction
system.cpu.op_class_0::SimdSha256Hash2              0      0.00%     46.46% # Class of committed instruction
system.cpu.op_class_0::SimdShaSigma2                0      0.00%     46.46% # Class of committed instruction
system.cpu.op_class_0::SimdShaSigma3                0      0.00%     46.46% # Class of committed instruction
system.cpu.op_class_0::SimdPredAlu                  0      0.00%     46.46% # Class of committed instruction
system.cpu.op_class_0::MemRead               42690537     42.61%     89.06% # Class of committed instruction
system.cpu.op_class_0::MemWrite              10958215     10.94%    100.00% # Class of committed instruction
system.cpu.op_class_0::FloatMemRead                 0      0.00%    100.00% # Class of committed instruction
system.cpu.op_class_0::FloatMemWrite                0      0.00%    100.00% # Class of committed instruction
system.cpu.op_class_0::IprAccess                    0      0.00%    100.00% # Class of committed instruction
system.cpu.op_class_0::InstPrefetch                 0      0.00%    100.00% # Class of committed instruction
system.cpu.op_class_0::total                100196356                       # Class of committed instruction
system.cpu.tickCycles                       132657043                       # Number of cycles that the object actually ticked
system.cpu.workload.numSyscalls                    85                       # Number of system calls
system.membus.snoop_filter.hit_multi_requests            0                       # Number of requests hitting in the snoop filter with multiple (>1) holders of the requested data.
system.membus.snoop_filter.hit_multi_snoops            0                       # Number of snoops hitting in the snoop filter with multiple (>1) holders of the requested data.
system.membus.snoop_filter.hit_single_requests       168708                       # Number of requests hitting in the snoop filter with a single holder of the requested data.
system.membus.snoop_filter.hit_single_snoops            0                       # Number of snoops hitting in the snoop filter with a single holder of the requested data.
system.membus.snoop_filter.tot_requests        370514                       # Total number of requests made to the snoop filter.
system.membus.snoop_filter.tot_snoops               0                       # Total number of snoops made to the snoop filter.
system.tol2bus.snoop_filter.hit_multi_requests           71                       # Number of requests hitting in the snoop filter with multiple (>1) holders of the requested data.
system.tol2bus.snoop_filter.hit_multi_snoops            0                       # Number of snoops hitting in the snoop filter with multiple (>1) holders of the requested data.
system.tol2bus.snoop_filter.hit_single_requests       635019                       # Number of requests hitting in the snoop filter with a single holder of the requested data.
system.tol2bus.snoop_filter.hit_single_snoops          470                       # Number of snoops hitting in the snoop filter with a single holder of the requested data.
system.tol2bus.snoop_filter.tot_requests      1271498                       # Total number of requests made to the snoop filter.
system.tol2bus.snoop_filter.tot_snoops            470                       # Total number of snoops made to the snoop filter.
system.membus.trans_dist::ReadResp              65728                       # Transaction distribution
system.membus.trans_dist::WritebackDirty       111029                       # Transaction distribution
system.membus.trans_dist::CleanEvict            57674                       # Transaction distribution
system.membus.trans_dist::ReadExReq            136083                       # Transaction distribution
system.membus.trans_dist::ReadExResp           136083                       # Transaction distribution
system.membus.trans_dist::ReadSharedReq         65728                       # Transaction distribution
system.membus.pkt_count_system.l2.mem_side_port::system.mem_ctrls.port       572325                       # Packet count per connected requestor and responder (bytes)
system.membus.pkt_count::total                 572325                       # Packet count per connected requestor and responder (bytes)
system.membus.pkt_size_system.l2.mem_side_port::system.mem_ctrls.port     20021760                       # Cumulative packet size per connected requestor and responder (bytes)
system.membus.pkt_size::total                20021760                       # Cumulative packet size per connected requestor and responder (bytes)
system.membus.snoops                                0                       # Total snoops (count)
system.membus.snoopTraffic                          0                       # Total snoop traffic (bytes)
system.membus.snoop_fanout::samples            201811                       # Request fanout histogram
system.membus.snoop_fanout::mean                    0                       # Request fanout histogram
system.membus.snoop_fanout::stdev                   0                       # Request fanout histogram
system.membus.snoop_fanout::underflows              0      0.00%      0.00% # Request fanout histogram
system.membus.snoop_fanout::0                  201811    100.00%    100.00% # Request fanout histogram
system.membus.snoop_fanout::1                       0      0.00%    100.00% # Request fanout histogram
system.membus.snoop_fanout::overflows               0      0.00%    100.00% # Request fanout histogram
system.membus.snoop_fanout::min_value               0                       # Request fanout histogram
system.membus.snoop_fanout::max_value               0                       # Request fanout histogram
system.membus.snoop_fanout::total              201811                       # Request fanout histogram
system.membus.reqLayer0.occupancy           852399500                       # Layer occupancy (ticks)
system.membus.reqLayer0.utilization               1.0                       # Layer utilization (%)
system.membus.respLayer1.occupancy         1079314560                       # Layer occupancy (ticks)
system.membus.respLayer1.utilization              1.3                       # Layer utilization (%)
system.membus.power_state.pwrStateResidencyTicks::UNDEFINED  83105833500                       # Cumulative time (in ticks) in various power states
system.tol2bus.trans_dist::ReadResp            362889                       # Transaction distribution
system.tol2bus.trans_dist::WritebackDirty       670745                       # Transaction distribution
system.tol2bus.trans_dist::WritebackClean          333                       # Transaction distribution
system.tol2bus.trans_dist::CleanEvict          133112                       # Transaction distribution
system.tol2bus.trans_dist::ReadExReq           273592                       # Transaction distribution
system.tol2bus.trans_dist::ReadExResp          273592                       # Transaction distribution
system.tol2bus.trans_dist::ReadCleanReq           773                       # Transaction distribution
system.tol2bus.trans_dist::ReadSharedReq       362116                       # Transaction distribution
system.tol2bus.pkt_count_system.cpu.icache.mem_side_port::system.l2.cpu_side_port         1879                       # Packet count per connected requestor and responder (bytes)
system.tol2bus.pkt_count_system.cpu.dcache.mem_side_port::system.l2.cpu_side_port      1906100                       # Packet count per connected requestor and responder (bytes)
system.tol2bus.pkt_count::total               1907979                       # Packet count per connected requestor and responder (bytes)
system.tol2bus.pkt_size_system.cpu.icache.mem_side_port::system.l2.cpu_side_port        70784                       # Cumulative packet size per connected requestor and responder (bytes)
system.tol2bus.pkt_size_system.cpu.dcache.mem_side_port::system.l2.cpu_side_port     76507136                       # Cumulative packet size per connected requestor and responder (bytes)
system.tol2bus.pkt_size::total               76577920                       # Cumulative packet size per connected requestor and responder (bytes)
system.tol2bus.snoops                          169173                       # Total snoops (count)
system.tol2bus.snoopTraffic                   7105856                       # Total snoop traffic (bytes)
system.tol2bus.snoop_fanout::samples           805654                       # Request fanout histogram
system.tol2bus.snoop_fanout::mean            0.000674                       # Request fanout histogram
system.tol2bus.snoop_fanout::stdev           0.025953                       # Request fanout histogram
system.tol2bus.snoop_fanout::underflows             0      0.00%      0.00% # Request fanout histogram
system.tol2bus.snoop_fanout::0                 805111     99.93%     99.93% # Request fanout histogram
system.tol2bus.snoop_fanout::1                    543      0.07%    100.00% # Request fanout histogram
system.tol2bus.snoop_fanout::2                      0      0.00%    100.00% # Request fanout histogram
system.tol2bus.snoop_fanout::overflows              0      0.00%    100.00% # Request fanout histogram
system.tol2bus.snoop_fanout::min_value              0                       # Request fanout histogram
system.tol2bus.snoop_fanout::max_value              1                       # Request fanout histogram
system.tol2bus.snoop_fanout::total             805654                       # Request fanout histogram
system.tol2bus.reqLayer0.occupancy         1195798000                       # Layer occupancy (ticks)
system.tol2bus.reqLayer0.utilization              1.4                       # Layer utilization (%)
system.tol2bus.respLayer1.occupancy         953564994                       # Layer occupancy (ticks)
system.tol2bus.respLayer1.utilization             1.1                       # Layer utilization (%)
system.tol2bus.respLayer0.occupancy           1159500                       # Layer occupancy (ticks)
system.tol2bus.respLayer0.utilization             0.0                       # Layer utilization (%)
system.tol2bus.power_state.pwrStateResidencyTicks::UNDEFINED  83105833500                       # Cumulative time (in ticks) in various power states
system.voltage_domain.voltage                       1                       # Voltage in Volts
system.clk_domain.clock                          1000                       # Clock period in ticks
system.l2.demand_hits::.cpu.inst                  102                       # number of demand (read+write) hits
system.l2.demand_hits::.cpu.data               434562                       # number of demand (read+write) hits
system.l2.demand_hits::total                   434664                       # number of demand (read+write) hits
system.l2.overall_hits::.cpu.inst                 102                       # number of overall hits
system.l2.overall_hits::.cpu.data              434562                       # number of overall hits
system.l2.overall_hits::total                  434664                       # number of overall hits
system.l2.demand_misses::.cpu.inst                671                       # number of demand (read+write) misses
system.l2.demand_misses::.cpu.data             201146                       # number of demand (read+write) misses
system.l2.demand_misses::total                 201817                       # number of demand (read+write) misses
system.l2.overall_misses::.cpu.inst               671                       # number of overall misses
system.l2.overall_misses::.cpu.data            201146                       # number of overall misses
system.l2.overall_misses::total                201817                       # number of overall misses
system.l2.demand_miss_latency::.cpu.inst     52475000                       # number of demand (read+write) miss cycles
system.l2.demand_miss_latency::.cpu.data  16720315000                       # number of demand (read+write) miss cycles
system.l2.demand_miss_latency::total      16772790000                       # number of demand (read+write) miss cycles
system.l2.overall_miss_latency::.cpu.inst     52475000                       # number of overall miss cycles
system.l2.overall_miss_latency::.cpu.data  16720315000                       # number of overall miss cycles
system.l2.overall_miss_latency::total     16772790000                       # number of overall miss cycles
system.l2.demand_accesses::.cpu.inst              773                       # number of demand (read+write) accesses
system.l2.demand_accesses::.cpu.data           635708                       # number of demand (read+write) accesses
system.l2.demand_accesses::total               636481                       # number of demand (read+write) accesses
system.l2.overall_accesses::.cpu.inst             773                       # number of overall (read+write) accesses
system.l2.overall_accesses::.cpu.data          635708                       # number of overall (read+write) accesses
system.l2.overall_accesses::total              636481                       # number of overall (read+write) accesses
system.l2.demand_miss_rate::.cpu.inst        0.868047                       # miss rate for demand accesses
system.l2.demand_miss_rate::.cpu.data        0.316413                       # miss rate for demand accesses
system.l2.demand_miss_rate::total            0.317083                       # miss rate for demand accesses
system.l2.overall_miss_rate::.cpu.inst       0.868047                       # miss rate for overall accesses
system.l2.overall_miss_rate::.cpu.data       0.316413                       # miss rate for overall accesses
system.l2.overall_miss_rate::total           0.317083                       # miss rate for overall accesses
system.l2.demand_avg_miss_latency::.cpu.inst 78204.172876                       # average overall miss latency
system.l2.demand_avg_miss_latency::.cpu.data 83125.267219                       # average overall miss latency
system.l2.demand_avg_miss_latency::total 83108.905593                       # average overall miss latency
system.l2.overall_avg_miss_latency::.cpu.inst 78204.172876                       # average overall miss latency
system.l2.overall_avg_miss_latency::.cpu.data 83125.267219                       # average overall miss latency
system.l2.overall_avg_miss_latency::total 83108.905593                       # average overall miss latency
system.l2.blocked_cycles::no_mshrs                  0                       # number of cycles access was blocked
system.l2.blocked_cycles::no_targets                0                       # number of cycles access was blocked
system.l2.blocked::no_mshrs                         0                       # number of cycles access was blocked
system.l2.blocked::no_targets                       0                       # number of cycles access was blocked
system.l2.avg_blocked_cycles::no_mshrs            nan                       # average number of cycles each access was blocked
system.l2.avg_blocked_cycles::no_targets          nan                       # average number of cycles each access was blocked
system.l2.writebacks::.writebacks              111029                       # number of writebacks
system.l2.writebacks::total                    111029                       # number of writebacks
system.l2.demand_mshr_hits::.cpu.data               6                       # number of demand (read+write) MSHR hits
system.l2.demand_mshr_hits::total                   6                       # number of demand (read+write) MSHR hits
system.l2.overall_mshr_hits::.cpu.data              6                       # number of overall MSHR hits
system.l2.overall_mshr_hits::total                  6                       # number of overall MSHR hits
system.l2.demand_mshr_misses::.cpu.inst           671                       # number of demand (read+write) MSHR misses
system.l2.demand_mshr_misses::.cpu.data        201140                       # number of demand (read+write) MSHR misses
system.l2.demand_mshr_misses::total            201811                       # number of demand (read+write) MSHR misses
system.l2.overall_mshr_misses::.cpu.inst          671                       # number of overall MSHR misses
system.l2.overall_mshr_misses::.cpu.data       201140                       # number of overall MSHR misses
system.l2.overall_mshr_misses::total           201811                       # number of overall MSHR misses
system.l2.demand_mshr_miss_latency::.cpu.inst     45765000                       # number of demand (read+write) MSHR miss cycles
system.l2.demand_mshr_miss_latency::.cpu.data  14708543500                       # number of demand (read+write) MSHR miss cycles
system.l2.demand_mshr_miss_latency::total  14754308500                       # number of demand (read+write) MSHR miss cycles
system.l2.overall_mshr_miss_latency::.cpu.inst     45765000                       # number of overall MSHR miss cycles
system.l2.overall_mshr_miss_latency::.cpu.data  14708543500                       # number of overall MSHR miss cycles
system.l2.overall_mshr_miss_latency::total  14754308500                       # number of overall MSHR miss cycles
system.l2.demand_mshr_miss_rate::.cpu.inst     0.868047                       # mshr miss rate for demand accesses
system.l2.demand_mshr_miss_rate::.cpu.data     0.316403                       # mshr miss rate for demand accesses
system.l2.demand_mshr_miss_rate::total       0.317073                       # mshr miss rate for demand accesses
system.l2.overall_mshr_miss_rate::.cpu.inst     0.868047                       # mshr miss rate for overall accesses
system.l2.overall_mshr_miss_rate::.cpu.data     0.316403                       # mshr miss rate for overall accesses
system.l2.overall_mshr_miss_rate::total      0.317073                       # mshr miss rate for overall accesses
system.l2.demand_avg_mshr_miss_latency::.cpu.inst 68204.172876                       # average overall mshr miss latency
system.l2.demand_avg_mshr_miss_latency::.cpu.data 73125.899871                       # average overall mshr miss latency
system.l2.demand_avg_mshr_miss_latency::total 73109.535655                       # average overall mshr miss latency
system.l2.overall_avg_mshr_miss_latency::.cpu.inst 68204.172876                       # average overall mshr miss latency
system.l2.overall_avg_mshr_miss_latency::.cpu.data 73125.899871                       # average overall mshr miss latency
system.l2.overall_avg_mshr_miss_latency::total 73109.535655                       # average overall mshr miss latency
system.l2.replacements                         169173                       # number of replacements
system.l2.WritebackDirty_hits::.writebacks       559716                       # number of WritebackDirty hits
system.l2.WritebackDirty_hits::total           559716                       # number of WritebackDirty hits
system.l2.WritebackDirty_accesses::.writebacks       559716                       # number of WritebackDirty accesses(hits+misses)
system.l2.WritebackDirty_accesses::total       559716                       # number of WritebackDirty accesses(hits+misses)
system.l2.WritebackClean_hits::.writebacks          324                       # number of WritebackClean hits
system.l2.WritebackClean_hits::total              324                       # number of WritebackClean hits
system.l2.WritebackClean_accesses::.writebacks          324                       # number of WritebackClean accesses(hits+misses)
system.l2.WritebackClean_accesses::total          324                       # number of WritebackClean accesses(hits+misses)
system.l2.ReadExReq_hits::.cpu.data            137509                       # number of ReadExReq hits
system.l2.ReadExReq_hits::total                137509                       # number of ReadExReq hits
system.l2.ReadExReq_misses::.cpu.data          136083                       # number of ReadExReq misses
system.l2.ReadExReq_misses::total              136083                       # number of ReadExReq misses
system.l2.ReadExReq_miss_latency::.cpu.data  11586806500                       # number of ReadExReq miss cycles
system.l2.ReadExReq_miss_latency::total   11586806500                       # number of ReadExReq miss cycles
system.l2.ReadExReq_accesses::.cpu.data        273592                       # number of ReadExReq accesses(hits+misses)
system.l2.ReadExReq_accesses::total            273592                       # number of ReadExReq accesses(hits+misses)
system.l2.ReadExReq_miss_rate::.cpu.data     0.497394                       # miss rate for ReadExReq accesses
system.l2.ReadExReq_miss_rate::total         0.497394                       # miss rate for ReadExReq accesses
system.l2.ReadExReq_avg_miss_latency::.cpu.data 85145.143038                       # average ReadExReq miss latency
system.l2.ReadExReq_avg_miss_latency::total 85145.143038                       # average ReadExReq miss latency
system.l2.ReadExReq_mshr_misses::.cpu.data       136083                       # number of ReadExReq MSHR misses
system.l2.ReadExReq_mshr_misses::total         136083                       # number of ReadExReq MSHR misses
system.l2.ReadExReq_mshr_miss_latency::.cpu.data  10225976500                       # number of ReadExReq MSHR miss cycles
system.l2.ReadExReq_mshr_miss_latency::total  10225976500                       # number of ReadExReq MSHR miss cycles
system.l2.ReadExReq_mshr_miss_rate::.cpu.data     0.497394                       # mshr miss rate for ReadExReq accesses
system.l2.ReadExReq_mshr_miss_rate::total     0.497394                       # mshr miss rate for ReadExReq accesses
system.l2.ReadExReq_avg_mshr_miss_latency::.cpu.data 75145.143038                       # average ReadExReq mshr miss latency
system.l2.ReadExReq_avg_mshr_miss_latency::total 75145.143038                       # average ReadExReq mshr miss latency
system.l2.ReadCleanReq_hits::.cpu.inst            102                       # number of ReadCleanReq hits
system.l2.ReadCleanReq_hits::total                102                       # number of ReadCleanReq hits
system.l2.ReadCleanReq_misses::.cpu.inst          671                       # number of ReadCleanReq misses
system.l2.ReadCleanReq_misses::total              671                       # number of ReadCleanReq misses
system.l2.ReadCleanReq_miss_latency::.cpu.inst     52475000                       # number of ReadCleanReq miss cycles
system.l2.ReadCleanReq_miss_latency::total     52475000                       # number of ReadCleanReq miss cycles
system.l2.ReadCleanReq_accesses::.cpu.inst          773                       # number of ReadCleanReq accesses(hits+misses)
system.l2.ReadCleanReq_accesses::total            773                       # number of ReadCleanReq accesses(hits+misses)
system.l2.ReadCleanReq_miss_rate::.cpu.inst     0.868047                       # miss rate for ReadCleanReq accesses
system.l2.ReadCleanReq_miss_rate::total      0.868047                       # miss rate for ReadCleanReq accesses
system.l2.ReadCleanReq_avg_miss_latency::.cpu.inst 78204.172876                       # average ReadCleanReq miss latency
system.l2.ReadCleanReq_avg_miss_latency::total 78204.172876                       # average ReadCleanReq miss latency
system.l2.ReadCleanReq_mshr_misses::.cpu.inst          671                       # number of ReadCleanReq MSHR misses
system.l2.ReadCleanReq_mshr_misses::total          671                       # number of ReadCleanReq MSHR misses
system.l2.ReadCleanReq_mshr_miss_latency::.cpu.inst     45765000                       # number of ReadCleanReq MSHR miss cycles
system.l2.ReadCleanReq_mshr_miss_latency::total     45765000                       # number of ReadCleanReq MSHR miss cycles
system.l2.ReadCleanReq_mshr_miss_rate::.cpu.inst     0.868047                       # mshr miss rate for ReadCleanReq accesses
system.l2.ReadCleanReq_mshr_miss_rate::total     0.868047                       # mshr miss rate for ReadCleanReq accesses
system.l2.ReadCleanReq_avg_mshr_miss_latency::.cpu.inst 68204.172876                       # average ReadCleanReq mshr miss latency
system.l2.ReadCleanReq_avg_mshr_miss_latency::total 68204.172876                       # average ReadCleanReq mshr miss latency
system.l2.ReadSharedReq_hits::.cpu.data        297053                       # number of ReadSharedReq hits
system.l2.ReadSharedReq_hits::total            297053                       # number of ReadSharedReq hits
system.l2.ReadSharedReq_misses::.cpu.data        65063                       # number of ReadSharedReq misses
system.l2.ReadSharedReq_misses::total           65063                       # number of ReadSharedReq misses
system.l2.ReadSharedReq_miss_latency::.cpu.data   5133508500                       # number of ReadSharedReq miss cycles
system.l2.ReadSharedReq_miss_latency::total   5133508500                       # number of ReadSharedReq miss cycles
system.l2.ReadSharedReq_accesses::.cpu.data       362116                       # number of ReadSharedReq accesses(hits+misses)
system.l2.ReadSharedReq_accesses::total        362116                       # number of ReadSharedReq accesses(hits+misses)
system.l2.ReadSharedReq_miss_rate::.cpu.data     0.179674                       # miss rate for ReadSharedReq accesses
system.l2.ReadSharedReq_miss_rate::total     0.179674                       # miss rate for ReadSharedReq accesses
system.l2.ReadSharedReq_avg_miss_latency::.cpu.data 78900.580975                       # average ReadSharedReq miss latency
system.l2.ReadSharedReq_avg_miss_latency::total 78900.580975                       # average ReadSharedReq miss latency
system.l2.ReadSharedReq_mshr_hits::.cpu.data            6                       # number of ReadSharedReq MSHR hits
system.l2.ReadSharedReq_mshr_hits::total            6                       # number of ReadSharedReq MSHR hits
system.l2.ReadSharedReq_mshr_misses::.cpu.data        65057                       # number of ReadSharedReq MSHR misses
system.l2.ReadSharedReq_mshr_misses::total        65057                       # number of ReadSharedReq MSHR misses
system.l2.ReadSharedReq_mshr_miss_latency::.cpu.data   4482567000                       # number of ReadSharedReq MSHR miss cycles
system.l2.ReadSharedReq_mshr_miss_latency::total   4482567000                       # number of ReadSharedReq MSHR miss cycles
system.l2.ReadSharedReq_mshr_miss_rate::.cpu.data     0.179658                       # mshr miss rate for ReadSharedReq accesses
system.l2.ReadSharedReq_mshr_miss_rate::total     0.179658                       # mshr miss rate for ReadSharedReq accesses
system.l2.ReadSharedReq_avg_mshr_miss_latency::.cpu.data 68902.147348                       # average ReadSharedReq mshr miss latency
system.l2.ReadSharedReq_avg_mshr_miss_latency::total 68902.147348                       # average ReadSharedReq mshr miss latency
system.l2.power_state.pwrStateResidencyTicks::UNDEFINED  83105833500                       # Cumulative time (in ticks) in various power states
system.l2.tags.tagsinuse                 31919.964953                       # Cycle average of tags in use
system.l2.tags.total_refs                     1271421                       # Total number of references to valid blocks.
system.l2.tags.sampled_refs                    201941                       # Sample count of references to valid blocks.
system.l2.tags.avg_refs                      6.296002                       # Average number of references to valid blocks.
system.l2.tags.warmup_cycle                     76000                       # Cycle when the warmup percentage was hit.
system.l2.tags.occ_blocks::.writebacks      48.226388                       # Average occupied blocks per requestor
system.l2.tags.occ_blocks::.cpu.inst        86.168226                       # Average occupied blocks per requestor
system.l2.tags.occ_blocks::.cpu.data     31785.570339                       # Average occupied blocks per requestor
system.l2.tags.occ_percent::.writebacks      0.001472                       # Average percentage of cache occupancy
system.l2.tags.occ_percent::.cpu.inst        0.002630                       # Average percentage of cache occupancy
system.l2.tags.occ_percent::.cpu.data        0.970019                       # Average percentage of cache occupancy
system.l2.tags.occ_percent::total            0.974120                       # Average percentage of cache occupancy
system.l2.tags.occ_task_id_blocks::1024         32768                       # Occupied blocks per task id
system.l2.tags.age_task_id_blocks_1024::1          137                       # Occupied blocks per task id
system.l2.tags.age_task_id_blocks_1024::2         1174                       # Occupied blocks per task id
system.l2.tags.age_task_id_blocks_1024::3        15881                       # Occupied blocks per task id
system.l2.tags.age_task_id_blocks_1024::4        15576                       # Occupied blocks per task id
system.l2.tags.occ_task_id_percent::1024            1                       # Percentage of cache occupancy per task id
system.l2.tags.tag_accesses                  10373357                       # Number of tag accesses
system.l2.tags.data_accesses                 10373357                       # Number of data accesses
system.l2.tags.power_state.pwrStateResidencyTicks::UNDEFINED  83105833500                       # Cumulative time (in ticks) in various power states
system.cpu_voltage_domain.voltage                   1                       # Voltage in Volts
system.mem_ctrls.avgPriority_.writebacks::samples    111029.00                       # Average QoS priority value for accepted requests
system.mem_ctrls.avgPriority_.cpu.inst::samples       671.00                       # Average QoS priority value for accepted requests
system.mem_ctrls.avgPriority_.cpu.data::samples    201053.00                       # Average QoS priority value for accepted requests
system.mem_ctrls.priorityMinLatency      0.000000017492                       # per QoS priority minimum request to response latency (s)
system.mem_ctrls.priorityMaxLatency      0.006560167310                       # per QoS priority maximum request to response latency (s)
system.mem_ctrls.numReadWriteTurnArounds         6609                       # Number of turnarounds from READ to WRITE
system.mem_ctrls.numWriteReadTurnArounds         6609                       # Number of turnarounds from WRITE to READ
system.mem_ctrls.numStayReadState              526808                       # Number of times bus staying in READ state
system.mem_ctrls.numStayWriteState             104451                       # Number of times bus staying in WRITE state
system.mem_ctrls.readReqs                      201811                       # Number of read requests accepted
system.mem_ctrls.writeReqs                     111029                       # Number of write requests accepted
system.mem_ctrls.readBursts                    201811                       # Number of controller read bursts, including those serviced by the write queue
system.mem_ctrls.writeBursts                   111029                       # Number of controller write bursts, including those merged in the write queue
system.mem_ctrls.servicedByWrQ                     87                       # Number of controller read bursts serviced by the write queue
system.mem_ctrls.mergedWrBursts                     0                       # Number of controller write bursts merged with an existing one
system.mem_ctrls.neitherReadNorWriteReqs            0                       # Number of requests that are neither read nor write
system.mem_ctrls.avgRdQLen                       1.08                       # Average read queue length when enqueuing
system.mem_ctrls.avgWrQLen                      56.62                       # Average write queue length when enqueuing
system.mem_ctrls.numRdRetry                         0                       # Number of times read queue was full causing retry
system.mem_ctrls.numWrRetry                         0                       # Number of times write queue was full causing retry
system.mem_ctrls.readPktSize::0                     0                       # Read request sizes (log2)
system.mem_ctrls.readPktSize::1                     0                       # Read request sizes (log2)
system.mem_ctrls.readPktSize::2                     0                       # Read request sizes (log2)
system.mem_ctrls.readPktSize::3                     0                       # Read request sizes (log2)
system.mem_ctrls.readPktSize::4                     0                       # Read request sizes (log2)
system.mem_ctrls.readPktSize::5                     0                       # Read request sizes (log2)
system.mem_ctrls.readPktSize::6                201811                       # Read request sizes (log2)
system.mem_ctrls.writePktSize::0                    0                       # Write request sizes (log2)
system.mem_ctrls.writePktSize::1                    0                       # Write request sizes (log2)
system.mem_ctrls.writePktSize::2                    0                       # Write request sizes (log2)
system.mem_ctrls.writePktSize::3                    0                       # Write request sizes (log2)
system.mem_ctrls.writePktSize::4                    0                       # Write request sizes (log2)
system.mem_ctrls.writePktSize::5                    0                       # Write request sizes (log2)
system.mem_ctrls.writePktSize::6               111029                       # Write request sizes (log2)
system.mem_ctrls.rdQLenPdf::0                  140394                       # What read queue length does an incoming req see
system.mem_ctrls.rdQLenPdf::1                   59706                       # What read queue length does an incoming req see
system.mem_ctrls.rdQLenPdf::2                    1298                       # What read queue length does an incoming req see
system.mem_ctrls.rdQLenPdf::3                     325                       # What read queue length does an incoming req see
system.mem_ctrls.rdQLenPdf::4                       1                       # What read queue length does an incoming req see
system.mem_ctrls.rdQLenPdf::5                       0                       # What read queue length does an incoming req see
system.mem_ctrls.rdQLenPdf::6                       0                       # What read queue length does an incoming req see
system.mem_ctrls.rdQLenPdf::7                       0                       # What read queue length does an incoming req see
system.mem_ctrls.rdQLenPdf::8                       0                       # What read queue length does an incoming req see
system.mem_ctrls.rdQLenPdf::9                       0                       # What read queue length does an incoming req see
system.mem_ctrls.rdQLenPdf::10                      0                       # What read queue length does an incoming req see
system.mem_ctrls.rdQLenPdf::11                      0                       # What read queue length does an incoming req see
system.mem_ctrls.rdQLenPdf::12                      0                       # What read queue length does an incoming req see
system.mem_ctrls.rdQLenPdf::13                      0                       # What read queue length does an incoming req see
system.mem_ctrls.rdQLenPdf::14                      0                       # What read queue length does an incoming req see
system.mem_ctrls.rdQLenPdf::15                      0                       # What read queue length does an incoming req see
system.mem_ctrls.rdQLenPdf::16                      0                       # What read queue length does an incoming req see
system.mem_ctrls.rdQLenPdf::17                      0                       # What read queue length does an incoming req see
system.mem_ctrls.rdQLenPdf::18                      0                       # What read queue length does an incoming req see
system.mem_ctrls.rdQLenPdf::19                      0                       # What read queue length does an incoming req see
system.mem_ctrls.rdQLenPdf::20                      0                       # What read queue length does an incoming req see
system.mem_ctrls.rdQLenPdf::21                      0                       # What read queue length does an incoming req see
system.mem_ctrls.rdQLenPdf::22                      0                       # What read queue length does an incoming req see
system.mem_ctrls.rdQLenPdf::23                      0                       # What read queue length does an incoming req see
system.mem_ctrls.rdQLenPdf::24                      0                       # What read queue length does an incoming req see
system.mem_ctrls.rdQLenPdf::25                      0                       # What read queue length does an incoming req see
system.mem_ctrls.rdQLenPdf::26                      0                       # What read queue length does an incoming req see
system.mem_ctrls.rdQLenPdf::27                      0                       # What read queue length does an incoming req see
system.mem_ctrls.rdQLenPdf::28                      0                       # What read queue length does an incoming req see
system.mem_ctrls.rdQLenPdf::29                      0                       # What read queue length does an incoming req see
system.mem_ctrls.rdQLenPdf::30                      0                       # What read queue length does an incoming req see
system.mem_ctrls.rdQLenPdf::31                      0                       # What read queue length does an incoming req see
system.mem_ctrls.rdQLenPdf::32                      0                       # What read queue length does an incoming req see
system.mem_ctrls.rdQLenPdf::33                      0                       # What read queue length does an incoming req see
system.mem_ctrls.rdQLenPdf::34                      0                       # What read queue length does an incoming req see
system.mem_ctrls.rdQLenPdf::35                      0                       # What read queue length does an incoming req see
system.mem_ctrls.rdQLenPdf::36                      0                       # What read queue length does an incoming req see
system.mem_ctrls.rdQLenPdf::37                      0                       # What read queue length does an incoming req see
system.mem_ctrls.rdQLenPdf::38                      0                       # What read queue length does an incoming req see
system.mem_ctrls.rdQLenPdf::39                      0                       # What read queue length does an incoming req see
system.mem_ctrls.rdQLenPdf::40                      0                       # What read queue length does an incoming req see
system.mem_ctrls.rdQLenPdf::41                      0                       # What read queue length does an incoming req see
system.mem_ctrls.rdQLenPdf::42                      0                       # What read queue length does an incoming req see
system.mem_ctrls.rdQLenPdf::43                      0                       # What read queue length does an incoming req see
system.mem_ctrls.rdQLenPdf::44                      0                       # What read queue length does an incoming req see
system.mem_ctrls.rdQLenPdf::45                      0                       # What read queue length does an incoming req see
system.mem_ctrls.rdQLenPdf::46                      0                       # What read queue length does an incoming req see
system.mem_ctrls.rdQLenPdf::47                      0                       # What read queue length does an incoming req see
system.mem_ctrls.rdQLenPdf::48                      0                       # What read queue length does an incoming req see
system.mem_ctrls.rdQLenPdf::49                      0                       # What read queue length does an incoming req see
system.mem_ctrls.rdQLenPdf::50                      0                       # What read queue length does an incoming req see
system.mem_ctrls.rdQLenPdf::51                      0                       # What read queue length does an incoming req see
system.mem_ctrls.rdQLenPdf::52                      0                       # What read queue length does an incoming req see
system.mem_ctrls.rdQLenPdf::53                      0                       # What read queue length does an incoming req see
system.mem_ctrls.rdQLenPdf::54                      0                       # What read queue length does an incoming req see
system.mem_ctrls.rdQLenPdf::55                      0                       # What read queue length does an incoming req see
system.mem_ctrls.rdQLenPdf::56                      0                       # What read queue length does an incoming req see
system.mem_ctrls.rdQLenPdf::57                      0                       # What read queue length does an incoming req see
system.mem_ctrls.rdQLenPdf::58                      0                       # What read queue length does an incoming req see
system.mem_ctrls.rdQLenPdf::59                      0                       # What read queue length does an incoming req see
system.mem_ctrls.rdQLenPdf::60                      0                       # What read queue length does an incoming req see
system.mem_ctrls.rdQLenPdf::61                      0                       # What read queue length does an incoming req see
system.mem_ctrls.rdQLenPdf::62                      0                       # What read queue length does an incoming req see
system.mem_ctrls.rdQLenPdf::63                      0                       # What read queue length does an incoming req see
system.mem_ctrls.wrQLenPdf::0                       1                       # What write queue length does an incoming req see
system.mem_ctrls.wrQLenPdf::1                       1                       # What write queue length does an incoming req see
system.mem_ctrls.wrQLenPdf::2                       1                       # What write queue length does an incoming req see
system.mem_ctrls.wrQLenPdf::3                       1                       # What write queue length does an incoming req see
system.mem_ctrls.wrQLenPdf::4                       1                       # What write queue length does an incoming req see
system.mem_ctrls.wrQLenPdf::5                       1                       # What write queue length does an incoming req see
system.mem_ctrls.wrQLenPdf::6                       1                       # What write queue length does an incoming req see
system.mem_ctrls.wrQLenPdf::7                       1                       # What write queue length does an incoming req see
system.mem_ctrls.wrQLenPdf::8                       1                       # What write queue length does an incoming req see
system.mem_ctrls.wrQLenPdf::9                       1                       # What write queue length does an incoming req see
system.mem_ctrls.wrQLenPdf::10                      1                       # What write queue length does an incoming req see
system.mem_ctrls.wrQLenPdf::11                      1                       # What write queue length does an incoming req see
system.mem_ctrls.wrQLenPdf::12                      1                       # What write queue length does an incoming req see
system.mem_ctrls.wrQLenPdf::13                      1                       # What write queue length does an incoming req see
system.mem_ctrls.wrQLenPdf::14                      1                       # What write queue length does an incoming req see
system.mem_ctrls.wrQLenPdf::15                      1                       # What write queue length does an incoming req see
system.mem_ctrls.wrQLenPdf::16                      1                       # What write queue length does an incoming req see
system.mem_ctrls.wrQLenPdf::17                      1                       # What write queue length does an incoming req see
system.mem_ctrls.wrQLenPdf::18                      1                       # What write queue length does an incoming req see
system.mem_ctrls.wrQLenPdf::19                      1                       # What write queue length does an incoming req see
system.mem_ctrls.wrQLenPdf::20                      1                       # What write queue length does an incoming req see
system.mem_ctrls.wrQLenPdf::21                      1                       # What write queue length does an incoming req see
system.mem_ctrls.wrQLenPdf::22                      1                       # What write queue length does an incoming req see
system.mem_ctrls.wrQLenPdf::23                      1                       # What write queue length does an incoming req see
system.mem_ctrls.wrQLenPdf::24                      1                       # What write queue length does an incoming req see
system.mem_ctrls.wrQLenPdf::25                      1                       # What write queue length does an incoming req see
system.mem_ctrls.wrQLenPdf::26                      1                       # What write queue length does an incoming req see
system.mem_ctrls.wrQLenPdf::27                      1                       # What write queue length does an incoming req see
system.mem_ctrls.wrQLenPdf::28                      1                       # What write queue length does an incoming req see
system.mem_ctrls.wrQLenPdf::29                      1                       # What write queue length does an incoming req see
system.mem_ctrls.wrQLenPdf::30                      1                       # What write queue length does an incoming req see
system.mem_ctrls.wrQLenPdf::31                      1                       # What write queue length does an incoming req see
system.mem_ctrls.wrQLenPdf::32                      1                       # What write queue length does an incoming req see
system.mem_ctrls.wrQLenPdf::33                      1                       # What write queue length does an incoming req see
system.mem_ctrls.wrQLenPdf::34                      1                       # What write queue length does an incoming req see
system.mem_ctrls.wrQLenPdf::35                      1                       # What write queue length does an incoming req see
system.mem_ctrls.wrQLenPdf::36                      1                       # What write queue length does an incoming req see
system.mem_ctrls.wrQLenPdf::37                      1                       # What write queue length does an incoming req see
system.mem_ctrls.wrQLenPdf::38                      1                       # What write queue length does an incoming req see
system.mem_ctrls.wrQLenPdf::39                      1                       # What write queue length does an incoming req see
system.mem_ctrls.wrQLenPdf::40                      1                       # What write queue length does an incoming req see
system.mem_ctrls.wrQLenPdf::41                      1                       # What write queue length does an incoming req see
system.mem_ctrls.wrQLenPdf::42                      1                       # What write queue length does an incoming req see
system.mem_ctrls.wrQLenPdf::43                      1                       # What write queue length does an incoming req see
system.mem_ctrls.wrQLenPdf::44                      1                       # What write queue length does an incoming req see
system.mem_ctrls.wrQLenPdf::45                      1                       # What write queue length does an incoming req see
system.mem_ctrls.wrQLenPdf::46                      1                       # What write queue length does an incoming req see
system.mem_ctrls.wrQLenPdf::47                   2483                       # What write queue length does an incoming req see
system.mem_ctrls.wrQLenPdf::48                   2576                       # What write queue length does an incoming req see
system.mem_ctrls.wrQLenPdf::49                   6275                       # What write queue length does an incoming req see
system.mem_ctrls.wrQLenPdf::50                   6601                       # What write queue length does an incoming req see
system.mem_ctrls.wrQLenPdf::51                   6673                       # What write queue length does an incoming req see
system.mem_ctrls.wrQLenPdf::52                   6655                       # What write queue length does an incoming req see
system.mem_ctrls.wrQLenPdf::53                   6660                       # What write queue length does an incoming req see
system.mem_ctrls.wrQLenPdf::54                   6655                       # What write queue length does an incoming req see
system.mem_ctrls.wrQLenPdf::55                   6655                       # What write queue length does an incoming req see
system.mem_ctrls.wrQLenPdf::56                   6655                       # What write queue length does an incoming req see
system.mem_ctrls.wrQLenPdf::57                   6678                       # What write queue length does an incoming req see
system.mem_ctrls.wrQLenPdf::58                   6664                       # What write queue length does an incoming req see
system.mem_ctrls.wrQLenPdf::59                   6687                       # What write queue length does an incoming req see
system.mem_ctrls.wrQLenPdf::60                   6621                       # What write queue length does an incoming req see
system.mem_ctrls.wrQLenPdf::61                   6613                       # What write queue length does an incoming req see
system.mem_ctrls.wrQLenPdf::62                   6610                       # What write queue length does an incoming req see
system.mem_ctrls.wrQLenPdf::63                   6609                       # What write queue length does an incoming req see
system.mem_ctrls.wrQLenPdf::64                   6609                       # What write queue length does an incoming req see
system.mem_ctrls.wrQLenPdf::65                      3                       # What write queue length does an incoming req see
system.mem_ctrls.wrQLenPdf::66                      0                       # What write queue length does an incoming req see
system.mem_ctrls.wrQLenPdf::67                      0                       # What write queue length does an incoming req see
system.mem_ctrls.wrQLenPdf::68                      0                       # What write queue length does an incoming req see
system.mem_ctrls.wrQLenPdf::69                      0                       # What write queue length does an incoming req see
system.mem_ctrls.wrQLenPdf::70                      0                       # What write queue length does an incoming req see
system.mem_ctrls.wrQLenPdf::71                      0                       # What write queue length does an incoming req see
system.mem_ctrls.wrQLenPdf::72                      0                       # What write queue length does an incoming req see
system.mem_ctrls.wrQLenPdf::73                      0                       # What write queue length does an incoming req see
system.mem_ctrls.wrQLenPdf::74                      0                       # What write queue length does an incoming req see
system.mem_ctrls.wrQLenPdf::75                      0                       # What write queue length does an incoming req see
system.mem_ctrls.wrQLenPdf::76                      0                       # What write queue length does an incoming req see
system.mem_ctrls.wrQLenPdf::77                      0                       # What write queue length does an incoming req see
system.mem_ctrls.wrQLenPdf::78                      0                       # What write queue length does an incoming req see
system.mem_ctrls.wrQLenPdf::79                      0                       # What write queue length does an incoming req see
system.mem_ctrls.wrQLenPdf::80                      0                       # What write queue length does an incoming req see
system.mem_ctrls.wrQLenPdf::81                      0                       # What write queue length does an incoming req see
system.mem_ctrls.wrQLenPdf::82                      0                       # What write queue length does an incoming req see
system.mem_ctrls.wrQLenPdf::83                      0                       # What write queue length does an incoming req see
system.mem_ctrls.wrQLenPdf::84                      0                       # What write queue length does an incoming req see
system.mem_ctrls.wrQLenPdf::85                      0                       # What write queue length does an incoming req see
system.mem_ctrls.wrQLenPdf::86                      0                       # What write queue length does an incoming req see
system.mem_ctrls.wrQLenPdf::87                      0                       # What write queue length does an incoming req see
system.mem_ctrls.wrQLenPdf::88                      0                       # What write queue length does an incoming req see
system.mem_ctrls.wrQLenPdf::89                      0                       # What write queue length does an incoming req see
system.mem_ctrls.wrQLenPdf::90                      0                       # What write queue length does an incoming req see
system.mem_ctrls.wrQLenPdf::91                      0                       # What write queue length does an incoming req see
system.mem_ctrls.wrQLenPdf::92                      0                       # What write queue length does an incoming req see
system.mem_ctrls.wrQLenPdf::93                      0                       # What write queue length does an incoming req see
system.mem_ctrls.wrQLenPdf::94                      0                       # What write queue length does an incoming req see
system.mem_ctrls.wrQLenPdf::95                      0                       # What write queue length does an incoming req see
system.mem_ctrls.wrQLenPdf::96                      0                       # What write queue length does an incoming req see
system.mem_ctrls.wrQLenPdf::97                      0                       # What write queue length does an incoming req see
system.mem_ctrls.wrQLenPdf::98                      0                       # What write queue length does an incoming req see
system.mem_ctrls.wrQLenPdf::99                      0                       # What write queue length does an incoming req see
system.mem_ctrls.wrQLenPdf::100                     0                       # What write queue length does an incoming req see
system.mem_ctrls.wrQLenPdf::101                     0                       # What write queue length does an incoming req see
system.mem_ctrls.wrQLenPdf::102                     0                       # What write queue length does an incoming req see
system.mem_ctrls.wrQLenPdf::103                     0                       # What write queue length does an incoming req see
system.mem_ctrls.wrQLenPdf::104                     0                       # What write queue length does an incoming req see
system.mem_ctrls.wrQLenPdf::105                     0                       # What write queue length does an incoming req see
system.mem_ctrls.wrQLenPdf::106                     0                       # What write queue length does an incoming req see
system.mem_ctrls.wrQLenPdf::107                     0                       # What write queue length does an incoming req see
system.mem_ctrls.wrQLenPdf::108                     0                       # What write queue length does an incoming req see
system.mem_ctrls.wrQLenPdf::109                     0                       # What write queue length does an incoming req see
system.mem_ctrls.wrQLenPdf::110                     0                       # What write queue length does an incoming req see
system.mem_ctrls.wrQLenPdf::111                     0                       # What write queue length does an incoming req see
system.mem_ctrls.wrQLenPdf::112                     0                       # What write queue length does an incoming req see
system.mem_ctrls.wrQLenPdf::113                     0                       # What write queue length does an incoming req see
system.mem_ctrls.wrQLenPdf::114                     0                       # What write queue length does an incoming req see
system.mem_ctrls.wrQLenPdf::115                     0                       # What write queue length does an incoming req see
system.mem_ctrls.wrQLenPdf::116                     0                       # What write queue length does an incoming req see
system.mem_ctrls.wrQLenPdf::117                     0                       # What write queue length does an incoming req see
system.mem_ctrls.wrQLenPdf::118                     0                       # What write queue length does an incoming req see
system.mem_ctrls.wrQLenPdf::119                     0                       # What write queue length does an incoming req see
system.mem_ctrls.wrQLenPdf::120                     0                       # What write queue length does an incoming req see
system.mem_ctrls.wrQLenPdf::121                     0                       # What write queue length does an incoming req see
system.mem_ctrls.wrQLenPdf::122                     0                       # What write queue length does an incoming req see
system.mem_ctrls.wrQLenPdf::123                     0                       # What write queue length does an incoming req see
system.mem_ctrls.wrQLenPdf::124                     0                       # What write queue length does an incoming req see
system.mem_ctrls.wrQLenPdf::125                     0                       # What write queue length does an incoming req see
system.mem_ctrls.wrQLenPdf::126                     0                       # What write queue length does an incoming req see
system.mem_ctrls.wrQLenPdf::127                     0                       # What write queue length does an incoming req see
system.mem_ctrls.rdPerTurnAround::samples         6609                       # Reads before turning the bus around for writes
system.mem_ctrls.rdPerTurnAround::mean      30.520048                       # Reads before turning the bus around for writes
system.mem_ctrls.rdPerTurnAround::gmean     24.024564                       # Reads before turning the bus around for writes
system.mem_ctrls.rdPerTurnAround::stdev     60.171591                       # Reads before turning the bus around for writes
system.mem_ctrls.rdPerTurnAround::0-63           6327     95.73%     95.73% # Reads before turning the bus around for writes
system.mem_ctrls.rdPerTurnAround::64-127          115      1.74%     97.47% # Reads before turning the bus around for writes
system.mem_ctrls.rdPerTurnAround::128-191           34      0.51%     97.99% # Reads before turning the bus around for writes
system.mem_ctrls.rdPerTurnAround::192-255            7      0.11%     98.09% # Reads before turning the bus around for writes
system.mem_ctrls.rdPerTurnAround::256-319          123      1.86%     99.95% # Reads before turning the bus around for writes
system.mem_ctrls.rdPerTurnAround::320-383            1      0.02%     99.97% # Reads before turning the bus around for writes
system.mem_ctrls.rdPerTurnAround::2560-2623            1      0.02%     99.98% # Reads before turning the bus around for writes
system.mem_ctrls.rdPerTurnAround::3008-3071            1      0.02%    100.00% # Reads before turning the bus around for writes
system.mem_ctrls.rdPerTurnAround::total          6609                       # Reads before turning the bus around for writes
system.mem_ctrls.wrPerTurnAround::samples         6609                       # Writes before turning the bus around for reads
system.mem_ctrls.wrPerTurnAround::mean      16.790135                       # Writes before turning the bus around for reads
system.mem_ctrls.wrPerTurnAround::gmean     16.760748                       # Writes before turning the bus around for reads
system.mem_ctrls.wrPerTurnAround::stdev      1.003921                       # Writes before turning the bus around for reads
system.mem_ctrls.wrPerTurnAround::16             4022     60.86%     60.86% # Writes before turning the bus around for reads
system.mem_ctrls.wrPerTurnAround::17               97      1.47%     62.32% # Writes before turning the bus around for reads
system.mem_ctrls.wrPerTurnAround::18             2347     35.51%     97.84% # Writes before turning the bus around for reads
system.mem_ctrls.wrPerTurnAround::19              141      2.13%     99.97% # Writes before turning the bus around for reads
system.mem_ctrls.wrPerTurnAround::20                2      0.03%    100.00% # Writes before turning the bus around for reads
system.mem_ctrls.wrPerTurnAround::total          6609                       # Writes before turning the bus around for reads
system.mem_ctrls.bytesReadWrQ                    5568                       # Total number of bytes read from write queue
system.mem_ctrls.bytesReadSys                12915904                       # Total read bytes from the system interface side
system.mem_ctrls.bytesWrittenSys              7105856                       # Total written bytes from the system interface side
system.mem_ctrls.avgRdBWSys                    155.42                       # Average system read bandwidth in MiByte/s
system.mem_ctrls.avgWrBWSys                     85.50                       # Average system write bandwidth in MiByte/s
system.mem_ctrls.totGap                   83095469000                       # Total gap between requests
system.mem_ctrls.avgGap                     265616.51                       # Average gap between requests
system.mem_ctrls.requestorReadBytes::.cpu.inst        42944                       # Per-requestor bytes read from memory
system.mem_ctrls.requestorReadBytes::.cpu.data     12867392                       # Per-requestor bytes read from memory
system.mem_ctrls.requestorWriteBytes::.writebacks      7101824                       # Per-requestor bytes write to memory
system.mem_ctrls.requestorReadRate::.cpu.inst 516738.695605525689                       # Per-requestor bytes read from memory rate (Bytes/sec)
system.mem_ctrls.requestorReadRate::.cpu.data 154831393.394303649664                       # Per-requestor bytes read from memory rate (Bytes/sec)
system.mem_ctrls.requestorWriteRate::.writebacks 85455180.471777588129                       # Per-requestor bytes write to memory rate (Bytes/sec)
system.mem_ctrls.requestorReadAccesses::.cpu.inst          671                       # Per-requestor read serviced memory accesses
system.mem_ctrls.requestorReadAccesses::.cpu.data       201140                       # Per-requestor read serviced memory accesses
system.mem_ctrls.requestorWriteAccesses::.writebacks       111029                       # Per-requestor write serviced memory accesses
system.mem_ctrls.requestorReadTotalLat::.cpu.inst     18154616                       # Per-requestor read total memory access latency
system.mem_ctrls.requestorReadTotalLat::.cpu.data   6369977358                       # Per-requestor read total memory access latency
system.mem_ctrls.requestorWriteTotalLat::.writebacks 4615465495682                       # Per-requestor write total memory access latency
system.mem_ctrls.requestorReadAvgLat::.cpu.inst     27056.06                       # Per-requestor read average memory access latency
system.mem_ctrls.requestorReadAvgLat::.cpu.data     31669.37                       # Per-requestor read average memory access latency
system.mem_ctrls.requestorWriteAvgLat::.writebacks  41569909.62                       # Per-requestor write average memory access latency
system.mem_ctrls.dram.bytes_read::.cpu.inst        42944                       # Number of bytes read from this memory
system.mem_ctrls.dram.bytes_read::.cpu.data     12872960                       # Number of bytes read from this memory
system.mem_ctrls.dram.bytes_read::total      12915904                       # Number of bytes read from this memory
system.mem_ctrls.dram.bytes_inst_read::.cpu.inst        42944                       # Number of instructions bytes read from this memory
system.mem_ctrls.dram.bytes_inst_read::total        42944                       # Number of instructions bytes read from this memory
system.mem_ctrls.dram.bytes_written::.writebacks      7105856                       # Number of bytes written to this memory
system.mem_ctrls.dram.bytes_written::total      7105856                       # Number of bytes written to this memory
system.mem_ctrls.dram.num_reads::.cpu.inst          671                       # Number of read requests responded to by this memory
system.mem_ctrls.dram.num_reads::.cpu.data       201140                       # Number of read requests responded to by this memory
system.mem_ctrls.dram.num_reads::total         201811                       # Number of read requests responded to by this memory
system.mem_ctrls.dram.num_writes::.writebacks       111029                       # Number of write requests responded to by this memory
system.mem_ctrls.dram.num_writes::total        111029                       # Number of write requests responded to by this memory
system.mem_ctrls.dram.bw_read::.cpu.inst       516739                       # Total read bandwidth from this memory (bytes/s)
system.mem_ctrls.dram.bw_read::.cpu.data    154898392                       # Total read bandwidth from this memory (bytes/s)
system.mem_ctrls.dram.bw_read::total        155415131                       # Total read bandwidth from this memory (bytes/s)
system.mem_ctrls.dram.bw_inst_read::.cpu.inst       516739                       # Instruction read bandwidth from this memory (bytes/s)
system.mem_ctrls.dram.bw_inst_read::total       516739                       # Instruction read bandwidth from this memory (bytes/s)
system.mem_ctrls.dram.bw_write::.writebacks     85503697                       # Write bandwidth from this memory (bytes/s)
system.mem_ctrls.dram.bw_write::total        85503697                       # Write bandwidth from this memory (bytes/s)
system.mem_ctrls.dram.bw_total::.writebacks     85503697                       # Total bandwidth to/from this memory (bytes/s)
system.mem_ctrls.dram.bw_total::.cpu.inst       516739                       # Total bandwidth to/from this memory (bytes/s)
system.mem_ctrls.dram.bw_total::.cpu.data    154898392                       # Total bandwidth to/from this memory (bytes/s)
system.mem_ctrls.dram.bw_total::total       240918828                       # Total bandwidth to/from this memory (bytes/s)
system.mem_ctrls.dram.readBursts               201724                       # Number of DRAM read bursts
system.mem_ctrls.dram.writeBursts              110966                       # Number of DRAM write bursts
system.mem_ctrls.dram.perBankRdBursts::0         6613                       # Per bank write bursts
system.mem_ctrls.dram.perBankRdBursts::1         6576                       # Per bank write bursts
system.mem_ctrls.dram.perBankRdBursts::2         6407                       # Per bank write bursts
system.mem_ctrls.dram.perBankRdBursts::3         6347                       # Per bank write bursts
system.mem_ctrls.dram.perBankRdBursts::4         6297                       # Per bank write bursts
system.mem_ctrls.dram.perBankRdBursts::5         6346                       # Per bank write bursts
system.mem_ctrls.dram.perBankRdBursts::6         6454                       # Per bank write bursts
system.mem_ctrls.dram.perBankRdBursts::7         6169                       # Per bank write bursts
system.mem_ctrls.dram.perBankRdBursts::8         6228                       # Per bank write bursts
system.mem_ctrls.dram.perBankRdBursts::9         6151                       # Per bank write bursts
system.mem_ctrls.dram.perBankRdBursts::10         6176                       # Per bank write bursts
system.mem_ctrls.dram.perBankRdBursts::11         6166                       # Per bank write bursts
system.mem_ctrls.dram.perBankRdBursts::12         6147                       # Per bank write bursts
system.mem_ctrls.dram.perBankRdBursts::13         6125                       # Per bank write bursts
system.mem_ctrls.dram.perBankRdBursts::14         6279                       # Per bank write bursts
system.mem_ctrls.dram.perBankRdBursts::15         6199                       # Per bank write bursts
system.mem_ctrls.dram.perBankRdBursts::16         6293                       # Per bank write bursts
system.mem_ctrls.dram.perBankRdBursts::17         6292                       # Per bank write bursts
system.mem_ctrls.dram.perBankRdBursts::18         6330                       # Per bank write bursts
system.mem_ctrls.dram.perBankRdBursts::19         6185                       # Per bank write bursts
system.mem_ctrls.dram.perBankRdBursts::20         6296                       # Per bank write bursts
system.mem_ctrls.dram.perBankRdBursts::21         6009                       # Per bank write bursts
system.mem_ctrls.dram.perBankRdBursts::22         6131                       # Per bank write bursts
system.mem_ctrls.dram.perBankRdBursts::23         6199                       # Per bank write bursts
system.mem_ctrls.dram.perBankRdBursts::24         6233                       # Per bank write bursts
system.mem_ctrls.dram.perBankRdBursts::25         5973                       # Per bank write bursts
system.mem_ctrls.dram.perBankRdBursts::26         6411                       # Per bank write bursts
system.mem_ctrls.dram.perBankRdBursts::27         6472                       # Per bank write bursts
system.mem_ctrls.dram.perBankRdBursts::28         6625                       # Per bank write bursts
system.mem_ctrls.dram.perBankRdBursts::29         6610                       # Per bank write bursts
system.mem_ctrls.dram.perBankRdBursts::30         6511                       # Per bank write bursts
system.mem_ctrls.dram.perBankRdBursts::31         6474                       # Per bank write bursts
system.mem_ctrls.dram.perBankWrBursts::0         3611                       # Per bank write bursts
system.mem_ctrls.dram.perBankWrBursts::1         3639                       # Per bank write bursts
system.mem_ctrls.dram.perBankWrBursts::2         3543                       # Per bank write bursts
system.mem_ctrls.dram.perBankWrBursts::3         3513                       # Per bank write bursts
system.mem_ctrls.dram.perBankWrBursts::4         3501                       # Per bank write bursts
system.mem_ctrls.dram.perBankWrBursts::5         3553                       # Per bank write bursts
system.mem_ctrls.dram.perBankWrBursts::6         3585                       # Per bank write bursts
system.mem_ctrls.dram.perBankWrBursts::7         3372                       # Per bank write bursts
system.mem_ctrls.dram.perBankWrBursts::8         3416                       # Per bank write bursts
system.mem_ctrls.dram.perBankWrBursts::9         3360                       # Per bank write bursts
system.mem_ctrls.dram.perBankWrBursts::10         3392                       # Per bank write bursts
system.mem_ctrls.dram.perBankWrBursts::11         3387                       # Per bank write bursts
system.mem_ctrls.dram.perBankWrBursts::12         3393                       # Per bank write bursts
system.mem_ctrls.dram.perBankWrBursts::13         3341                       # Per bank write bursts
system.mem_ctrls.dram.perBankWrBursts::14         3420                       # Per bank write bursts
system.mem_ctrls.dram.perBankWrBursts::15         3367                       # Per bank write bursts
system.mem_ctrls.dram.perBankWrBursts::16         3435                       # Per bank write bursts
system.mem_ctrls.dram.perBankWrBursts::17         3506                       # Per bank write bursts
system.mem_ctrls.dram.perBankWrBursts::18         3510                       # Per bank write bursts
system.mem_ctrls.dram.perBankWrBursts::19         3428                       # Per bank write bursts
system.mem_ctrls.dram.perBankWrBursts::20         3506                       # Per bank write bursts
system.mem_ctrls.dram.perBankWrBursts::21         3381                       # Per bank write bursts
system.mem_ctrls.dram.perBankWrBursts::22         3529                       # Per bank write bursts
system.mem_ctrls.dram.perBankWrBursts::23         3469                       # Per bank write bursts
system.mem_ctrls.dram.perBankWrBursts::24         3368                       # Per bank write bursts
[...]
system.cpu.dcache.ReadReq_misses::total        354792                       # number of ReadReq misses
system.cpu.dcache.ReadReq_miss_latency::.cpu.data   8511129000                       # number of ReadReq miss cycles
system.cpu.dcache.ReadReq_miss_latency::total   8511129000                       # number of ReadReq miss cycles
system.cpu.dcache.ReadReq_accesses::.cpu.data     41113572                       # number of ReadReq accesses(hits+misses)
system.cpu.dcache.ReadReq_accesses::total     41113572                       # number of ReadReq accesses(hits+misses)
system.cpu.dcache.ReadReq_miss_rate::.cpu.data     0.008630                       # miss rate for ReadReq accesses
system.cpu.dcache.ReadReq_miss_rate::total     0.008630                       # miss rate for ReadReq accesses
system.cpu.dcache.ReadReq_avg_miss_latency::.cpu.data 23989.066834                       # average ReadReq miss latency
system.cpu.dcache.ReadReq_avg_miss_latency::total 23989.066834                       # average ReadReq miss latency
system.cpu.dcache.ReadReq_mshr_hits::.cpu.data          581                       # number of ReadReq MSHR hits
system.cpu.dcache.ReadReq_mshr_hits::total          581                       # number of ReadReq MSHR hits
system.cpu.dcache.ReadReq_mshr_misses::.cpu.data       354211                       # number of ReadReq MSHR misses
system.cpu.dcache.ReadReq_mshr_misses::total       354211                       # number of ReadReq MSHR misses
system.cpu.dcache.ReadReq_mshr_miss_latency::.cpu.data   8133208000                       # number of ReadReq MSHR miss cycles
system.cpu.dcache.ReadReq_mshr_miss_latency::total   8133208000                       # number of ReadReq MSHR miss cycles
system.cpu.dcache.ReadReq_mshr_miss_rate::.cpu.data     0.008615                       # mshr miss rate for ReadReq accesses
system.cpu.dcache.ReadReq_mshr_miss_rate::total     0.008615                       # mshr miss rate for ReadReq accesses
system.cpu.dcache.ReadReq_avg_mshr_miss_latency::.cpu.data 22961.477763                       # average ReadReq mshr miss latency
system.cpu.dcache.ReadReq_avg_mshr_miss_latency::total 22961.477763                       # average ReadReq mshr miss latency
system.cpu.dcache.WriteReq_hits::.cpu.data     10617103                       # number of WriteReq hits
system.cpu.dcache.WriteReq_hits::total       10617103                       # number of WriteReq hits
system.cpu.dcache.WriteReq_misses::.cpu.data       331979                       # number of WriteReq misses
system.cpu.dcache.WriteReq_misses::total       331979                       # number of WriteReq misses
system.cpu.dcache.WriteReq_miss_latency::.cpu.data  15298128000                       # number of WriteReq miss cycles
system.cpu.dcache.WriteReq_miss_latency::total  15298128000                       # number of WriteReq miss cycles
system.cpu.dcache.WriteReq_accesses::.cpu.data     10949082                       # number of WriteReq accesses(hits+misses)
system.cpu.dcache.WriteReq_accesses::total     10949082                       # number of WriteReq accesses(hits+misses)
system.cpu.dcache.WriteReq_miss_rate::.cpu.data     0.030320                       # miss rate for WriteReq accesses
system.cpu.dcache.WriteReq_miss_rate::total     0.030320                       # miss rate for WriteReq accesses
system.cpu.dcache.WriteReq_avg_miss_latency::.cpu.data 46081.613596                       # average WriteReq miss latency
system.cpu.dcache.WriteReq_avg_miss_latency::total 46081.613596                       # average WriteReq miss latency
system.cpu.dcache.WriteReq_mshr_hits::.cpu.data        58387                       # number of WriteReq MSHR hits
system.cpu.dcache.WriteReq_mshr_hits::total        58387                       # number of WriteReq MSHR hits
system.cpu.dcache.WriteReq_mshr_misses::.cpu.data       273592                       # number of WriteReq MSHR misses
system.cpu.dcache.WriteReq_mshr_misses::total       273592                       # number of WriteReq MSHR misses
system.cpu.dcache.WriteReq_mshr_miss_latency::.cpu.data  13442219500                       # number of WriteReq MSHR miss cycles
system.cpu.dcache.WriteReq_mshr_miss_latency::total  13442219500                       # number of WriteReq MSHR miss cycles
system.cpu.dcache.WriteReq_mshr_miss_rate::.cpu.data     0.024988                       # mshr miss rate for WriteReq accesses
system.cpu.dcache.WriteReq_mshr_miss_rate::total     0.024988                       # mshr miss rate for WriteReq accesses
system.cpu.dcache.WriteReq_avg_mshr_miss_latency::.cpu.data 49132.355844                       # average WriteReq mshr miss latency
system.cpu.dcache.WriteReq_avg_mshr_miss_latency::total 49132.355844                       # average WriteReq mshr miss latency
system.cpu.dcache.SoftPFReq_hits::.cpu.data          510                       # number of SoftPFReq hits
system.cpu.dcache.SoftPFReq_hits::total           510                       # number of SoftPFReq hits
system.cpu.dcache.SoftPFReq_misses::.cpu.data         7909                       # number of SoftPFReq misses
system.cpu.dcache.SoftPFReq_misses::total         7909                       # number of SoftPFReq misses
system.cpu.dcache.SoftPFReq_accesses::.cpu.data         8419                       # number of SoftPFReq accesses(hits+misses)
system.cpu.dcache.SoftPFReq_accesses::total         8419                       # number of SoftPFReq accesses(hits+misses)
system.cpu.dcache.SoftPFReq_miss_rate::.cpu.data     0.939423                       # miss rate for SoftPFReq accesses
system.cpu.dcache.SoftPFReq_miss_rate::total     0.939423                       # miss rate for SoftPFReq accesses
system.cpu.dcache.SoftPFReq_mshr_misses::.cpu.data         7905                       # number of SoftPFReq MSHR misses
system.cpu.dcache.SoftPFReq_mshr_misses::total         7905                       # number of SoftPFReq MSHR misses
system.cpu.dcache.SoftPFReq_mshr_miss_latency::.cpu.data    664531499                       # number of SoftPFReq MSHR miss cycles
system.cpu.dcache.SoftPFReq_mshr_miss_latency::total    664531499                       # number of SoftPFReq MSHR miss cycles
system.cpu.dcache.SoftPFReq_mshr_miss_rate::.cpu.data     0.938948                       # mshr miss rate for SoftPFReq accesses
system.cpu.dcache.SoftPFReq_mshr_miss_rate::total     0.938948                       # mshr miss rate for SoftPFReq accesses
system.cpu.dcache.SoftPFReq_avg_mshr_miss_latency::.cpu.data 84064.705756                       # average SoftPFReq mshr miss latency
system.cpu.dcache.SoftPFReq_avg_mshr_miss_latency::total 84064.705756                       # average SoftPFReq mshr miss latency
system.cpu.dcache.LoadLockedReq_hits::.cpu.data           38                       # number of LoadLockedReq hits
system.cpu.dcache.LoadLockedReq_hits::total           38                       # number of LoadLockedReq hits
system.cpu.dcache.LoadLockedReq_accesses::.cpu.data           38                       # number of LoadLockedReq accesses(hits+misses)
system.cpu.dcache.LoadLockedReq_accesses::total           38                       # number of LoadLockedReq accesses(hits+misses)
system.cpu.dcache.StoreCondReq_hits::.cpu.data           38                       # number of StoreCondReq hits
system.cpu.dcache.StoreCondReq_hits::total           38                       # number of StoreCondReq hits
system.cpu.dcache.StoreCondReq_accesses::.cpu.data           38                       # number of StoreCondReq accesses(hits+misses)
system.cpu.dcache.StoreCondReq_accesses::total           38                       # number of StoreCondReq accesses(hits+misses)
system.cpu.dcache.power_state.pwrStateResidencyTicks::UNDEFINED  83105833500                       # Cumulative time (in ticks) in various power states
system.cpu.dcache.tags.tagsinuse          1008.410181                       # Cycle average of tags in use
system.cpu.dcache.tags.total_refs            52012177                       # Total number of references to valid blocks.
system.cpu.dcache.tags.sampled_refs            635708                       # Sample count of references to valid blocks.
system.cpu.dcache.tags.avg_refs             81.817717                       # Average number of references to valid blocks.
system.cpu.dcache.tags.warmup_cycle            174500                       # Cycle when the warmup percentage was hit.
system.cpu.dcache.tags.occ_blocks::.cpu.data  1008.410181                       # Average occupied blocks per requestor
system.cpu.dcache.tags.occ_percent::.cpu.data     0.984776                       # Average percentage of cache occupancy
system.cpu.dcache.tags.occ_percent::total     0.984776                       # Average percentage of cache occupancy
system.cpu.dcache.tags.occ_task_id_blocks::1024         1024                       # Occupied blocks per task id
system.cpu.dcache.tags.age_task_id_blocks_1024::0           88                       # Occupied blocks per task id
system.cpu.dcache.tags.age_task_id_blocks_1024::1          539                       # Occupied blocks per task id
system.cpu.dcache.tags.age_task_id_blocks_1024::2          392                       # Occupied blocks per task id
system.cpu.dcache.tags.age_task_id_blocks_1024::3            3                       # Occupied blocks per task id
system.cpu.dcache.tags.age_task_id_blocks_1024::4            2                       # Occupied blocks per task id
system.cpu.dcache.tags.occ_task_id_percent::1024            1                       # Percentage of cache occupancy per task id
system.cpu.dcache.tags.tag_accesses         208920304                       # Number of tag accesses
system.cpu.dcache.tags.data_accesses        208920304                       # Number of data accesses
system.cpu.dcache.tags.power_state.pwrStateResidencyTicks::UNDEFINED  83105833500                       # Cumulative time (in ticks) in various power states
system.cpu.power_state.pwrStateResidencyTicks::ON  83105833500                       # Cumulative time (in ticks) in various power states
system.cpu.branchPred.lookups                 4485832                       # Number of BP lookups
system.cpu.branchPred.condPredicted           3735519                       # Number of conditional branches predicted
system.cpu.branchPred.condIncorrect             81005                       # Number of conditional branches incorrect
system.cpu.branchPred.BTBLookups              2103811                       # Number of BTB lookups
system.cpu.branchPred.BTBHits                 2101807                       # Number of BTB hits
system.cpu.branchPred.BTBHitPct             99.904744                       # BTB Hit Percentage
system.cpu.branchPred.RASUsed                   65380                       # Number of times the RAS was used to get a target.
system.cpu.branchPred.RASIncorrect                 14                       # Number of incorrect RAS predictions.
system.cpu.branchPred.indirectLookups             692                       # Number of indirect predictor lookups.
system.cpu.branchPred.indirectHits                288                       # Number of indirect target hits.
system.cpu.branchPred.indirectMisses              404                       # Number of indirect misses.
system.cpu.branchPred.indirectMispredicted          171                       # Number of mispredicted indirect branches.
system.cpu.fetch2.intInstructions            42685830                       # Number of integer instructions successfully decoded
system.cpu.fetch2.fpInstructions                    0                       # Number of floating point instructions successfully decoded
system.cpu.fetch2.vecInstructions                   0                       # Number of SIMD instructions successfully decoded
system.cpu.fetch2.loadInstructions           43474987                       # Number of memory load instructions successfully decoded
system.cpu.fetch2.storeInstructions          11024862                       # Number of memory store instructions successfully decoded
system.cpu.fetch2.amoInstructions                   0                       # Number of memory atomic instructions successfully decoded
system.cpu.itb.instHits                             0                       # ITB inst hits
system.cpu.itb.instMisses                           0                       # ITB inst misses
system.cpu.itb.readHits                             0                       # DTB read hits
system.cpu.itb.readMisses                           0                       # DTB read misses
system.cpu.itb.writeHits                            0                       # DTB write hits
system.cpu.itb.writeMisses                          0                       # DTB write misses
system.cpu.itb.inserts                              0                       # Number of times an entry is inserted into the TLB
system.cpu.itb.flushTlb                             0                       # Number of times complete TLB was flushed
system.cpu.itb.flushTlbMva                          0                       # Number of times TLB was flushed by MVA
system.cpu.itb.flushTlbMvaAsid                      0                       # Number of times TLB was flushed by MVA & ASID
system.cpu.itb.flushTlbAsid                         0                       # Number of times TLB was flushed by ASID
system.cpu.itb.flushedEntries                       0                       # Number of entries that have been flushed from TLB
system.cpu.itb.alignFaults                          0                       # Number of TLB faults due to alignment restrictions
system.cpu.itb.prefetchFaults                       0                       # Number of TLB faults due to prefetch
system.cpu.itb.domainFaults                         0                       # Number of TLB faults due to domain restrictions
system.cpu.itb.permsFaults                          0                       # Number of TLB faults due to permissions restrictions
system.cpu.itb.readAccesses                         0                       # DTB read accesses
system.cpu.itb.writeAccesses                        0                       # DTB write accesses
system.cpu.itb.instAccesses                         0                       # ITB inst accesses
system.cpu.itb.hits                                 0                       # Total TLB (inst and data) hits
system.cpu.itb.misses                               0                       # Total TLB (inst and data) misses
system.cpu.itb.accesses                             0                       # Total TLB (inst and data) accesses
system.cpu.itb.walker.walks                         0                       # Table walker walks requested
system.cpu.itb.walker.requestOrigin_Requested::Data            0                       # Table walker requests started/completed, data/inst
system.cpu.itb.walker.requestOrigin_Requested::Inst            0                       # Table walker requests started/completed, data/inst
system.cpu.itb.walker.requestOrigin_Requested::total            0                       # Table walker requests started/completed, data/inst
system.cpu.itb.walker.requestOrigin_Completed::Data            0                       # Table walker requests started/completed, data/inst
system.cpu.itb.walker.requestOrigin_Completed::Inst            0                       # Table walker requests started/completed, data/inst
system.cpu.itb.walker.requestOrigin_Completed::total            0                       # Table walker requests started/completed, data/inst
system.cpu.itb.walker.requestOrigin::total            0                       # Table walker requests started/completed, data/inst
system.cpu.itb.walker.power_state.pwrStateResidencyTicks::UNDEFINED  83105833500                       # Cumulative time (in ticks) in various power states
system.cpu.itb.stage2_mmu.stage2_tlb.instHits            0                       # ITB inst hits
system.cpu.itb.stage2_mmu.stage2_tlb.instMisses            0                       # ITB inst misses
system.cpu.itb.stage2_mmu.stage2_tlb.readHits            0                       # DTB read hits
system.cpu.itb.stage2_mmu.stage2_tlb.readMisses            0                       # DTB read misses
system.cpu.itb.stage2_mmu.stage2_tlb.writeHits            0                       # DTB write hits
system.cpu.itb.stage2_mmu.stage2_tlb.writeMisses            0                       # DTB write misses
system.cpu.itb.stage2_mmu.stage2_tlb.inserts            0                       # Number of times an entry is inserted into the TLB
system.cpu.itb.stage2_mmu.stage2_tlb.flushTlb            0                       # Number of times complete TLB was flushed
system.cpu.itb.stage2_mmu.stage2_tlb.flushTlbMva            0                       # Number of times TLB was flushed by MVA
system.cpu.itb.stage2_mmu.stage2_tlb.flushTlbMvaAsid            0                       # Number of times TLB was flushed by MVA & ASID
system.cpu.itb.stage2_mmu.stage2_tlb.flushTlbAsid            0                       # Number of times TLB was flushed by ASID
system.cpu.itb.stage2_mmu.stage2_tlb.flushedEntries            0                       # Number of entries that have been flushed from TLB
system.cpu.itb.stage2_mmu.stage2_tlb.alignFaults            0                       # Number of TLB faults due to alignment restrictions
system.cpu.itb.stage2_mmu.stage2_tlb.prefetchFaults            0                       # Number of TLB faults due to prefetch
system.cpu.itb.stage2_mmu.stage2_tlb.domainFaults            0                       # Number of TLB faults due to domain restrictions
system.cpu.itb.stage2_mmu.stage2_tlb.permsFaults            0                       # Number of TLB faults due to permissions restrictions
system.cpu.itb.stage2_mmu.stage2_tlb.readAccesses            0                       # DTB read accesses
system.cpu.itb.stage2_mmu.stage2_tlb.writeAccesses            0                       # DTB write accesses
system.cpu.itb.stage2_mmu.stage2_tlb.instAccesses            0                       # ITB inst accesses
system.cpu.itb.stage2_mmu.stage2_tlb.hits            0                       # Total TLB (inst and data) hits
system.cpu.itb.stage2_mmu.stage2_tlb.misses            0                       # Total TLB (inst and data) misses
system.cpu.itb.stage2_mmu.stage2_tlb.accesses            0                       # Total TLB (inst and data) accesses
system.cpu.itb.stage2_mmu.stage2_tlb.walker.walks            0                       # Table walker walks requested
system.cpu.itb.stage2_mmu.stage2_tlb.walker.requestOrigin_Requested::Data            0                       # Table walker requests started/completed, data/inst
system.cpu.itb.stage2_mmu.stage2_tlb.walker.requestOrigin_Requested::Inst            0                       # Table walker requests started/completed, data/inst
system.cpu.itb.stage2_mmu.stage2_tlb.walker.requestOrigin_Requested::total            0                       # Table walker requests started/completed, data/inst
system.cpu.itb.stage2_mmu.stage2_tlb.walker.requestOrigin_Completed::Data            0                       # Table walker requests started/completed, data/inst
system.cpu.itb.stage2_mmu.stage2_tlb.walker.requestOrigin_Completed::Inst            0                       # Table walker requests started/completed, data/inst
system.cpu.itb.stage2_mmu.stage2_tlb.walker.requestOrigin_Completed::total            0                       # Table walker requests started/completed, data/inst
system.cpu.itb.stage2_mmu.stage2_tlb.walker.requestOrigin::total            0                       # Table walker requests started/completed, data/inst
system.cpu.itb.stage2_mmu.stage2_tlb.walker.power_state.pwrStateResidencyTicks::UNDEFINED  83105833500                       # Cumulative time (in ticks) in various power states

---------- End Simulation Statistics   ----------
